<!--
	This code was autogenerated using gridgen.py
	Total Nodes = 100
-->
<nodes>
	<node id="cell0_0" x="0" y="0" type="priority"/>
	<node id="cell0_1" x="100" y="0" type="priority"/>
	<node id="cell0_2" x="200" y="0" type="priority"/>
	<node id="cell0_3" x="300" y="0" type="priority"/>
	<node id="cell0_4" x="400" y="0" type="priority"/>
	<node id="cell0_5" x="500" y="0" type="priority"/>
	<node id="cell0_6" x="600" y="0" type="priority"/>
	<node id="cell0_7" x="700" y="0" type="priority"/>
	<node id="cell0_8" x="800" y="0" type="priority"/>
	<node id="cell0_9" x="900" y="0" type="priority"/>
	<node id="cell1_0" x="0" y="100" type="priority"/>
	<node id="cell1_1" x="100" y="100" type="priority"/>
	<node id="cell1_2" x="200" y="100" type="priority"/>
	<node id="cell1_3" x="300" y="100" type="priority"/>
	<node id="cell1_4" x="400" y="100" type="priority"/>
	<node id="cell1_5" x="500" y="100" type="priority"/>
	<node id="cell1_6" x="600" y="100" type="priority"/>
	<node id="cell1_7" x="700" y="100" type="priority"/>
	<node id="cell1_8" x="800" y="100" type="priority"/>
	<node id="cell1_9" x="900" y="100" type="priority"/>
	<node id="cell2_0" x="0" y="200" type="priority"/>
	<node id="cell2_1" x="100" y="200" type="priority"/>
	<node id="cell2_2" x="200" y="200" type="priority"/>
	<node id="cell2_3" x="300" y="200" type="priority"/>
	<node id="cell2_4" x="400" y="200" type="priority"/>
	<node id="cell2_5" x="500" y="200" type="priority"/>
	<node id="cell2_6" x="600" y="200" type="priority"/>
	<node id="cell2_7" x="700" y="200" type="priority"/>
	<node id="cell2_8" x="800" y="200" type="priority"/>
	<node id="cell2_9" x="900" y="200" type="priority"/>
	<node id="cell3_0" x="0" y="300" type="priority"/>
	<node id="cell3_1" x="100" y="300" type="priority"/>
	<node id="cell3_2" x="200" y="300" type="priority"/>
	<node id="cell3_3" x="300" y="300" type="priority"/>
	<node id="cell3_4" x="400" y="300" type="priority"/>
	<node id="cell3_5" x="500" y="300" type="priority"/>
	<node id="cell3_6" x="600" y="300" type="priority"/>
	<node id="cell3_7" x="700" y="300" type="priority"/>
	<node id="cell3_8" x="800" y="300" type="priority"/>
	<node id="cell3_9" x="900" y="300" type="priority"/>
	<node id="cell4_0" x="0" y="400" type="priority"/>
	<node id="cell4_1" x="100" y="400" type="priority"/>
	<node id="cell4_2" x="200" y="400" type="priority"/>
	<node id="cell4_3" x="300" y="400" type="priority"/>
	<node id="cell4_4" x="400" y="400" type="priority"/>
	<node id="cell4_5" x="500" y="400" type="priority"/>
	<node id="cell4_6" x="600" y="400" type="priority"/>
	<node id="cell4_7" x="700" y="400" type="priority"/>
	<node id="cell4_8" x="800" y="400" type="priority"/>
	<node id="cell4_9" x="900" y="400" type="priority"/>
	<node id="cell5_0" x="0" y="500" type="priority"/>
	<node id="cell5_1" x="100" y="500" type="priority"/>
	<node id="cell5_2" x="200" y="500" type="priority"/>
	<node id="cell5_3" x="300" y="500" type="priority"/>
	<node id="cell5_4" x="400" y="500" type="priority"/>
	<node id="cell5_5" x="500" y="500" type="priority"/>
	<node id="cell5_6" x="600" y="500" type="priority"/>
	<node id="cell5_7" x="700" y="500" type="priority"/>
	<node id="cell5_8" x="800" y="500" type="priority"/>
	<node id="cell5_9" x="900" y="500" type="priority"/>
	<node id="cell6_0" x="0" y="600" type="priority"/>
	<node id="cell6_1" x="100" y="600" type="priority"/>
	<node id="cell6_2" x="200" y="600" type="priority"/>
	<node id="cell6_3" x="300" y="600" type="priority"/>
	<node id="cell6_4" x="400" y="600" type="priority"/>
	<node id="cell6_5" x="500" y="600" type="priority"/>
	<node id="cell6_6" x="600" y="600" type="priority"/>
	<node id="cell6_7" x="700" y="600" type="priority"/>
	<node id="cell6_8" x="800" y="600" type="priority"/>
	<node id="cell6_9" x="900" y="600" type="priority"/>
	<node id="cell7_0" x="0" y="700" type="priority"/>
	<node id="cell7_1" x="100" y="700" type="priority"/>
	<node id="cell7_2" x="200" y="700" type="priority"/>
	<node id="cell7_3" x="300" y="700" type="priority"/>
	<node id="cell7_4" x="400" y="700" type="priority"/>
	<node id="cell7_5" x="500" y="700" type="priority"/>
	<node id="cell7_6" x="600" y="700" type="priority"/>
	<node id="cell7_7" x="700" y="700" type="priority"/>
	<node id="cell7_8" x="800" y="700" type="priority"/>
	<node id="cell7_9" x="900" y="700" type="priority"/>
	<node id="cell8_0" x="0" y="800" type="priority"/>
	<node id="cell8_1" x="100" y="800" type="priority"/>
	<node id="cell8_2" x="200" y="800" type="priority"/>
	<node id="cell8_3" x="300" y="800" type="priority"/>
	<node id="cell8_4" x="400" y="800" type="priority"/>
	<node id="cell8_5" x="500" y="800" type="priority"/>
	<node id="cell8_6" x="600" y="800" type="priority"/>
	<node id="cell8_7" x="700" y="800" type="priority"/>
	<node id="cell8_8" x="800" y="800" type="priority"/>
	<node id="cell8_9" x="900" y="800" type="priority"/>
	<node id="cell9_0" x="0" y="900" type="priority"/>
	<node id="cell9_1" x="100" y="900" type="priority"/>
	<node id="cell9_2" x="200" y="900" type="priority"/>
	<node id="cell9_3" x="300" y="900" type="priority"/>
	<node id="cell9_4" x="400" y="900" type="priority"/>
	<node id="cell9_5" x="500" y="900" type="priority"/>
	<node id="cell9_6" x="600" y="900" type="priority"/>
	<node id="cell9_7" x="700" y="900" type="priority"/>
	<node id="cell9_8" x="800" y="900" type="priority"/>
	<node id="cell9_9" x="900" y="900" type="priority"/>
</nodes>