<?xml version="1.0" encoding="UTF-8"?>

<!-- generated on 06/08/19 23:15:17 by Eclipse SUMO netconvert Version v1_0_1+0383-8ba62d898b
<configuration xmlns:xsi="http://www.w3.org/2001/XMLSchema-instance" xsi:noNamespaceSchemaLocation="http://sumo.dlr.de/xsd/netconvertConfiguration.xsd">

    <input>
        <node-files value="grid.nod.xml"/>
        <edge-files value="grid.edg.xml"/>
    </input>

    <output>
        <output-file value="grid.net.xml"/>
    </output>

</configuration>
-->

<net version="1.0" junctionCornerDetail="5" limitTurnSpeed="5.50" xmlns:xsi="http://www.w3.org/2001/XMLSchema-instance" xsi:noNamespaceSchemaLocation="http://sumo.dlr.de/xsd/net_file.xsd">

    <location netOffset="0.00,0.00" convBoundary="0.00,0.00,900.00,900.00" origBoundary="0.00,0.00,900.00,900.00" projParameter="!"/>

    <edge id=":cell0_0_0" function="internal">
        <lane id=":cell0_0_0_0" index="0" speed="9.73" length="21.49" shape="-1.60,11.73 -0.77,5.90 1.73,1.73 5.90,-0.77 11.73,-1.60"/>
    </edge>
    <edge id=":cell0_0_1" function="internal">
        <lane id=":cell0_0_1_0" index="0" speed="7.42" length="11.43" shape="-1.60,11.73 -0.91,5.59 1.16,2.79 2.91,3.06"/>
    </edge>
    <edge id=":cell0_0_2" function="internal">
        <lane id=":cell0_0_2_0" index="0" speed="3.65" length="2.56" shape="-1.60,11.73 -0.80,10.53 0.00,10.13 0.20,10.22"/>
    </edge>
    <edge id=":cell0_0_9" function="internal">
        <lane id=":cell0_0_9_0" index="0" speed="7.42" length="7.88" shape="2.91,3.06 4.60,3.31 9.42,7.16"/>
    </edge>
    <edge id=":cell0_0_10" function="internal">
        <lane id=":cell0_0_10_0" index="0" speed="3.65" length="2.12" shape="0.20,10.22 0.80,10.53 1.60,11.73"/>
    </edge>
    <edge id=":cell0_0_3" function="internal">
        <lane id=":cell0_0_3_0" index="0" speed="5.47" length="9.74" shape="7.16,9.42 4.73,7.48 2.99,7.22 1.95,8.63 1.60,11.73"/>
    </edge>
    <edge id=":cell0_0_4" function="internal">
        <lane id=":cell0_0_4_0" index="0" speed="7.42" length="19.31" shape="7.16,9.42 3.31,4.60 2.79,1.16 5.59,-0.91 11.73,-1.60"/>
    </edge>
    <edge id=":cell0_0_5" function="internal">
        <lane id=":cell0_0_5_0" index="0" speed="3.65" length="4.67" shape="7.16,9.42 6.88,8.01 7.16,7.16 8.01,6.88 9.42,7.16"/>
    </edge>
    <edge id=":cell0_0_6" function="internal">
        <lane id=":cell0_0_6_0" index="0" speed="5.47" length="9.74" shape="11.73,1.60 8.63,1.95 7.22,2.99 7.48,4.73 9.42,7.16"/>
    </edge>
    <edge id=":cell0_0_7" function="internal">
        <lane id=":cell0_0_7_0" index="0" speed="8.54" length="16.33" shape="11.73,1.60 7.30,2.23 4.13,4.13 2.23,7.30 1.60,11.73"/>
    </edge>
    <edge id=":cell0_0_8" function="internal">
        <lane id=":cell0_0_8_0" index="0" speed="3.65" length="2.08" shape="11.73,1.60 10.53,0.80 10.24,0.23"/>
    </edge>
    <edge id=":cell0_0_11" function="internal">
        <lane id=":cell0_0_11_0" index="0" speed="3.65" length="2.59" shape="10.24,0.23 10.13,-0.00 10.53,-0.80 11.73,-1.60"/>
    </edge>
    <edge id=":cell0_1_0" function="internal">
        <lane id=":cell0_1_0_0" index="0" speed="5.47" length="9.74" shape="98.40,11.73 98.05,8.63 97.01,7.22 95.27,7.48 92.84,9.42"/>
    </edge>
    <edge id=":cell0_1_1" function="internal">
        <lane id=":cell0_1_1_0" index="0" speed="8.54" length="16.33" shape="98.40,11.73 97.77,7.30 95.87,4.13 92.70,2.23 88.27,1.60"/>
    </edge>
    <edge id=":cell0_1_2" function="internal">
        <lane id=":cell0_1_2_0" index="0" speed="9.73" length="21.49" shape="98.40,11.73 99.23,5.90 101.73,1.73 105.90,-0.77 111.73,-1.60"/>
    </edge>
    <edge id=":cell0_1_3" function="internal">
        <lane id=":cell0_1_3_0" index="0" speed="7.42" length="19.31" shape="98.40,11.73 99.09,5.59 101.16,2.79 104.60,3.31 109.42,7.16"/>
    </edge>
    <edge id=":cell0_1_4" function="internal">
        <lane id=":cell0_1_4_0" index="0" speed="3.65" length="4.67" shape="98.40,11.73 99.20,10.53 100.00,10.13 100.80,10.53 101.60,11.73"/>
    </edge>
    <edge id=":cell0_1_5" function="internal">
        <lane id=":cell0_1_5_0" index="0" speed="5.47" length="9.74" shape="107.16,9.42 104.73,7.48 102.99,7.22 101.95,8.63 101.60,11.73"/>
    </edge>
    <edge id=":cell0_1_6" function="internal">
        <lane id=":cell0_1_6_0" index="0" speed="8.54" length="16.33" shape="107.16,9.42 103.58,6.74 100.00,5.84 96.42,6.74 92.84,9.42"/>
    </edge>
    <edge id=":cell0_1_7" function="internal">
        <lane id=":cell0_1_7_0" index="0" speed="13.41" length="20.98" shape="107.16,9.42 103.05,6.00 98.53,3.56 93.60,2.09 88.27,1.60"/>
    </edge>
    <edge id=":cell0_1_8" function="internal">
        <lane id=":cell0_1_8_0" index="0" speed="7.42" length="19.31" shape="107.16,9.42 103.31,4.60 102.79,1.16 105.59,-0.91 111.73,-1.60"/>
    </edge>
    <edge id=":cell0_1_9" function="internal">
        <lane id=":cell0_1_9_0" index="0" speed="3.65" length="4.67" shape="107.16,9.42 106.88,8.01 107.16,7.16 108.01,6.88 109.42,7.16"/>
    </edge>
    <edge id=":cell0_1_10" function="internal">
        <lane id=":cell0_1_10_0" index="0" speed="5.47" length="9.74" shape="111.73,1.60 108.63,1.95 107.22,2.99 107.48,4.73 109.42,7.16"/>
    </edge>
    <edge id=":cell0_1_11" function="internal">
        <lane id=":cell0_1_11_0" index="0" speed="8.54" length="16.33" shape="111.73,1.60 107.30,2.23 104.13,4.13 102.23,7.30 101.60,11.73"/>
    </edge>
    <edge id=":cell0_1_12" function="internal">
        <lane id=":cell0_1_12_0" index="0" speed="13.41" length="20.98" shape="111.73,1.60 106.40,2.09 101.47,3.56 96.95,6.00 92.84,9.42"/>
    </edge>
    <edge id=":cell0_1_13" function="internal">
        <lane id=":cell0_1_13_0" index="0" speed="13.41" length="23.45" shape="111.73,1.60 88.27,1.60"/>
    </edge>
    <edge id=":cell0_1_14" function="internal">
        <lane id=":cell0_1_14_0" index="0" speed="3.65" length="2.34" shape="111.73,1.60 110.53,0.80 110.13,0.00"/>
    </edge>
    <edge id=":cell0_1_25" function="internal">
        <lane id=":cell0_1_25_0" index="0" speed="3.65" length="2.34" shape="110.13,0.00 110.53,-0.80 111.73,-1.60"/>
    </edge>
    <edge id=":cell0_1_15" function="internal">
        <lane id=":cell0_1_15_0" index="0" speed="13.41" length="23.45" shape="88.27,-1.60 111.73,-1.60"/>
    </edge>
    <edge id=":cell0_1_16" function="internal">
        <lane id=":cell0_1_16_0" index="0" speed="13.41" length="9.68" shape="88.27,-1.60 94.24,-1.05 97.78,0.00"/>
    </edge>
    <edge id=":cell0_1_17" function="internal">
        <lane id=":cell0_1_17_0" index="0" speed="9.73" length="7.38" shape="88.27,-1.60 94.10,-0.77 95.38,0.00"/>
    </edge>
    <edge id=":cell0_1_18" function="internal">
        <lane id=":cell0_1_18_0" index="0" speed="7.42" length="7.71" shape="88.27,-1.60 94.41,-0.91 95.64,-0.00"/>
    </edge>
    <edge id=":cell0_1_19" function="internal">
        <lane id=":cell0_1_19_0" index="0" speed="3.65" length="2.34" shape="88.27,-1.60 89.47,-0.80 89.87,0.00"/>
    </edge>
    <edge id=":cell0_1_26" function="internal">
        <lane id=":cell0_1_26_0" index="0" speed="13.41" length="13.81" shape="97.78,0.00 99.76,0.59 104.82,3.33 109.42,7.16"/>
    </edge>
    <edge id=":cell0_1_27" function="internal">
        <lane id=":cell0_1_27_0" index="0" speed="9.73" length="14.11" shape="95.38,0.00 98.27,1.73 100.77,5.90 101.60,11.73"/>
    </edge>
    <edge id=":cell0_1_28" function="internal">
        <lane id=":cell0_1_28_0" index="0" speed="7.42" length="11.60" shape="95.64,-0.00 97.21,1.16 96.69,4.60 92.84,9.42"/>
    </edge>
    <edge id=":cell0_1_29" function="internal">
        <lane id=":cell0_1_29_0" index="0" speed="3.65" length="2.34" shape="89.87,0.00 89.47,0.80 88.27,1.60"/>
    </edge>
    <edge id=":cell0_1_20" function="internal">
        <lane id=":cell0_1_20_0" index="0" speed="5.47" length="9.74" shape="90.58,7.16 92.52,4.73 92.78,2.99 91.37,1.95 88.27,1.60"/>
    </edge>
    <edge id=":cell0_1_21" function="internal">
        <lane id=":cell0_1_21_0" index="0" speed="13.41" length="23.49" shape="90.58,7.16 95.18,3.33 100.24,0.59 105.76,-1.05 111.73,-1.60"/>
    </edge>
    <edge id=":cell0_1_22" function="internal">
        <lane id=":cell0_1_22_0" index="0" speed="9.73" length="21.49" shape="90.58,7.16 95.29,3.63 100.00,2.45 104.71,3.63 109.42,7.16"/>
    </edge>
    <edge id=":cell0_1_23" function="internal">
        <lane id=":cell0_1_23_0" index="0" speed="7.42" length="19.31" shape="90.58,7.16 95.40,3.31 98.84,2.79 100.91,5.59 101.60,11.73"/>
    </edge>
    <edge id=":cell0_1_24" function="internal">
        <lane id=":cell0_1_24_0" index="0" speed="3.65" length="4.67" shape="90.58,7.16 91.99,6.88 92.84,7.16 93.12,8.01 92.84,9.42"/>
    </edge>
    <edge id=":cell0_2_0" function="internal">
        <lane id=":cell0_2_0_0" index="0" speed="5.47" length="9.74" shape="198.40,11.73 198.05,8.63 197.01,7.22 195.27,7.48 192.84,9.42"/>
    </edge>
    <edge id=":cell0_2_1" function="internal">
        <lane id=":cell0_2_1_0" index="0" speed="8.54" length="16.33" shape="198.40,11.73 197.77,7.30 195.87,4.13 192.70,2.23 188.27,1.60"/>
    </edge>
    <edge id=":cell0_2_2" function="internal">
        <lane id=":cell0_2_2_0" index="0" speed="9.73" length="21.49" shape="198.40,11.73 199.23,5.90 201.73,1.73 205.90,-0.77 211.73,-1.60"/>
    </edge>
    <edge id=":cell0_2_3" function="internal">
        <lane id=":cell0_2_3_0" index="0" speed="7.42" length="19.31" shape="198.40,11.73 199.09,5.59 201.16,2.79 204.60,3.31 209.42,7.16"/>
    </edge>
    <edge id=":cell0_2_4" function="internal">
        <lane id=":cell0_2_4_0" index="0" speed="3.65" length="4.67" shape="198.40,11.73 199.20,10.53 200.00,10.13 200.80,10.53 201.60,11.73"/>
    </edge>
    <edge id=":cell0_2_5" function="internal">
        <lane id=":cell0_2_5_0" index="0" speed="5.47" length="9.74" shape="207.16,9.42 204.73,7.48 202.99,7.22 201.95,8.63 201.60,11.73"/>
    </edge>
    <edge id=":cell0_2_6" function="internal">
        <lane id=":cell0_2_6_0" index="0" speed="8.54" length="16.33" shape="207.16,9.42 203.58,6.74 200.00,5.84 196.42,6.74 192.84,9.42"/>
    </edge>
    <edge id=":cell0_2_7" function="internal">
        <lane id=":cell0_2_7_0" index="0" speed="13.41" length="20.98" shape="207.16,9.42 203.05,6.00 198.53,3.56 193.60,2.09 188.27,1.60"/>
    </edge>
    <edge id=":cell0_2_8" function="internal">
        <lane id=":cell0_2_8_0" index="0" speed="7.42" length="19.31" shape="207.16,9.42 203.31,4.60 202.79,1.16 205.59,-0.91 211.73,-1.60"/>
    </edge>
    <edge id=":cell0_2_9" function="internal">
        <lane id=":cell0_2_9_0" index="0" speed="3.65" length="4.67" shape="207.16,9.42 206.88,8.01 207.16,7.16 208.01,6.88 209.42,7.16"/>
    </edge>
    <edge id=":cell0_2_10" function="internal">
        <lane id=":cell0_2_10_0" index="0" speed="5.47" length="9.74" shape="211.73,1.60 208.63,1.95 207.22,2.99 207.48,4.73 209.42,7.16"/>
    </edge>
    <edge id=":cell0_2_11" function="internal">
        <lane id=":cell0_2_11_0" index="0" speed="8.54" length="16.33" shape="211.73,1.60 207.30,2.23 204.13,4.13 202.23,7.30 201.60,11.73"/>
    </edge>
    <edge id=":cell0_2_12" function="internal">
        <lane id=":cell0_2_12_0" index="0" speed="13.41" length="20.98" shape="211.73,1.60 206.40,2.09 201.47,3.56 196.95,6.00 192.84,9.42"/>
    </edge>
    <edge id=":cell0_2_13" function="internal">
        <lane id=":cell0_2_13_0" index="0" speed="13.41" length="23.45" shape="211.73,1.60 188.27,1.60"/>
    </edge>
    <edge id=":cell0_2_14" function="internal">
        <lane id=":cell0_2_14_0" index="0" speed="3.65" length="2.34" shape="211.73,1.60 210.53,0.80 210.13,0.00"/>
    </edge>
    <edge id=":cell0_2_25" function="internal">
        <lane id=":cell0_2_25_0" index="0" speed="3.65" length="2.34" shape="210.13,0.00 210.53,-0.80 211.73,-1.60"/>
    </edge>
    <edge id=":cell0_2_15" function="internal">
        <lane id=":cell0_2_15_0" index="0" speed="13.41" length="23.45" shape="188.27,-1.60 211.73,-1.60"/>
    </edge>
    <edge id=":cell0_2_16" function="internal">
        <lane id=":cell0_2_16_0" index="0" speed="13.41" length="9.68" shape="188.27,-1.60 194.24,-1.05 197.78,-0.00"/>
    </edge>
    <edge id=":cell0_2_17" function="internal">
        <lane id=":cell0_2_17_0" index="0" speed="9.73" length="7.38" shape="188.27,-1.60 194.10,-0.77 195.38,0.00"/>
    </edge>
    <edge id=":cell0_2_18" function="internal">
        <lane id=":cell0_2_18_0" index="0" speed="7.42" length="7.71" shape="188.27,-1.60 194.41,-0.91 195.64,0.00"/>
    </edge>
    <edge id=":cell0_2_19" function="internal">
        <lane id=":cell0_2_19_0" index="0" speed="3.65" length="2.34" shape="188.27,-1.60 189.47,-0.80 189.87,0.00"/>
    </edge>
    <edge id=":cell0_2_26" function="internal">
        <lane id=":cell0_2_26_0" index="0" speed="13.41" length="13.81" shape="197.78,-0.00 199.76,0.59 204.82,3.33 209.42,7.16"/>
    </edge>
    <edge id=":cell0_2_27" function="internal">
        <lane id=":cell0_2_27_0" index="0" speed="9.73" length="14.11" shape="195.38,0.00 198.27,1.73 200.77,5.90 201.60,11.73"/>
    </edge>
    <edge id=":cell0_2_28" function="internal">
        <lane id=":cell0_2_28_0" index="0" speed="7.42" length="11.60" shape="195.64,0.00 197.21,1.16 196.69,4.60 192.84,9.42"/>
    </edge>
    <edge id=":cell0_2_29" function="internal">
        <lane id=":cell0_2_29_0" index="0" speed="3.65" length="2.34" shape="189.87,0.00 189.47,0.80 188.27,1.60"/>
    </edge>
    <edge id=":cell0_2_20" function="internal">
        <lane id=":cell0_2_20_0" index="0" speed="5.47" length="9.74" shape="190.58,7.16 192.52,4.73 192.78,2.99 191.37,1.95 188.27,1.60"/>
    </edge>
    <edge id=":cell0_2_21" function="internal">
        <lane id=":cell0_2_21_0" index="0" speed="13.41" length="23.49" shape="190.58,7.16 195.18,3.33 200.24,0.59 205.76,-1.05 211.73,-1.60"/>
    </edge>
    <edge id=":cell0_2_22" function="internal">
        <lane id=":cell0_2_22_0" index="0" speed="9.73" length="21.49" shape="190.58,7.16 195.29,3.63 200.00,2.45 204.71,3.63 209.42,7.16"/>
    </edge>
    <edge id=":cell0_2_23" function="internal">
        <lane id=":cell0_2_23_0" index="0" speed="7.42" length="19.31" shape="190.58,7.16 195.40,3.31 198.84,2.79 200.91,5.59 201.60,11.73"/>
    </edge>
    <edge id=":cell0_2_24" function="internal">
        <lane id=":cell0_2_24_0" index="0" speed="3.65" length="4.67" shape="190.58,7.16 191.99,6.88 192.84,7.16 193.12,8.01 192.84,9.42"/>
    </edge>
    <edge id=":cell0_3_0" function="internal">
        <lane id=":cell0_3_0_0" index="0" speed="5.47" length="9.74" shape="298.40,11.73 298.05,8.63 297.01,7.22 295.27,7.48 292.84,9.42"/>
    </edge>
    <edge id=":cell0_3_1" function="internal">
        <lane id=":cell0_3_1_0" index="0" speed="8.54" length="16.33" shape="298.40,11.73 297.77,7.30 295.87,4.13 292.70,2.23 288.27,1.60"/>
    </edge>
    <edge id=":cell0_3_2" function="internal">
        <lane id=":cell0_3_2_0" index="0" speed="9.73" length="21.49" shape="298.40,11.73 299.23,5.90 301.73,1.73 305.90,-0.77 311.73,-1.60"/>
    </edge>
    <edge id=":cell0_3_3" function="internal">
        <lane id=":cell0_3_3_0" index="0" speed="7.42" length="19.31" shape="298.40,11.73 299.09,5.59 301.16,2.79 304.60,3.31 309.42,7.16"/>
    </edge>
    <edge id=":cell0_3_4" function="internal">
        <lane id=":cell0_3_4_0" index="0" speed="3.65" length="4.67" shape="298.40,11.73 299.20,10.53 300.00,10.13 300.80,10.53 301.60,11.73"/>
    </edge>
    <edge id=":cell0_3_5" function="internal">
        <lane id=":cell0_3_5_0" index="0" speed="5.47" length="9.74" shape="307.16,9.42 304.73,7.48 302.99,7.22 301.95,8.63 301.60,11.73"/>
    </edge>
    <edge id=":cell0_3_6" function="internal">
        <lane id=":cell0_3_6_0" index="0" speed="8.54" length="16.33" shape="307.16,9.42 303.58,6.74 300.00,5.84 296.42,6.74 292.84,9.42"/>
    </edge>
    <edge id=":cell0_3_7" function="internal">
        <lane id=":cell0_3_7_0" index="0" speed="13.41" length="20.98" shape="307.16,9.42 303.05,6.00 298.53,3.56 293.60,2.09 288.27,1.60"/>
    </edge>
    <edge id=":cell0_3_8" function="internal">
        <lane id=":cell0_3_8_0" index="0" speed="7.42" length="19.31" shape="307.16,9.42 303.31,4.60 302.79,1.16 305.59,-0.91 311.73,-1.60"/>
    </edge>
    <edge id=":cell0_3_9" function="internal">
        <lane id=":cell0_3_9_0" index="0" speed="3.65" length="4.67" shape="307.16,9.42 306.88,8.01 307.16,7.16 308.01,6.88 309.42,7.16"/>
    </edge>
    <edge id=":cell0_3_10" function="internal">
        <lane id=":cell0_3_10_0" index="0" speed="5.47" length="9.74" shape="311.73,1.60 308.63,1.95 307.22,2.99 307.48,4.73 309.42,7.16"/>
    </edge>
    <edge id=":cell0_3_11" function="internal">
        <lane id=":cell0_3_11_0" index="0" speed="8.54" length="16.33" shape="311.73,1.60 307.30,2.23 304.13,4.13 302.23,7.30 301.60,11.73"/>
    </edge>
    <edge id=":cell0_3_12" function="internal">
        <lane id=":cell0_3_12_0" index="0" speed="13.41" length="20.98" shape="311.73,1.60 306.40,2.09 301.47,3.56 296.95,6.00 292.84,9.42"/>
    </edge>
    <edge id=":cell0_3_13" function="internal">
        <lane id=":cell0_3_13_0" index="0" speed="13.41" length="23.45" shape="311.73,1.60 288.27,1.60"/>
    </edge>
    <edge id=":cell0_3_14" function="internal">
        <lane id=":cell0_3_14_0" index="0" speed="3.65" length="2.34" shape="311.73,1.60 310.53,0.80 310.13,0.00"/>
    </edge>
    <edge id=":cell0_3_25" function="internal">
        <lane id=":cell0_3_25_0" index="0" speed="3.65" length="2.34" shape="310.13,0.00 310.53,-0.80 311.73,-1.60"/>
    </edge>
    <edge id=":cell0_3_15" function="internal">
        <lane id=":cell0_3_15_0" index="0" speed="13.41" length="23.45" shape="288.27,-1.60 311.73,-1.60"/>
    </edge>
    <edge id=":cell0_3_16" function="internal">
        <lane id=":cell0_3_16_0" index="0" speed="13.41" length="9.68" shape="288.27,-1.60 294.24,-1.05 297.78,0.00"/>
    </edge>
    <edge id=":cell0_3_17" function="internal">
        <lane id=":cell0_3_17_0" index="0" speed="9.73" length="7.38" shape="288.27,-1.60 294.10,-0.77 295.38,-0.00"/>
    </edge>
    <edge id=":cell0_3_18" function="internal">
        <lane id=":cell0_3_18_0" index="0" speed="7.42" length="7.71" shape="288.27,-1.60 294.41,-0.91 295.64,-0.00"/>
    </edge>
    <edge id=":cell0_3_19" function="internal">
        <lane id=":cell0_3_19_0" index="0" speed="3.65" length="2.34" shape="288.27,-1.60 289.47,-0.80 289.87,0.00"/>
    </edge>
    <edge id=":cell0_3_26" function="internal">
        <lane id=":cell0_3_26_0" index="0" speed="13.41" length="13.81" shape="297.78,0.00 299.76,0.59 304.82,3.33 309.42,7.16"/>
    </edge>
    <edge id=":cell0_3_27" function="internal">
        <lane id=":cell0_3_27_0" index="0" speed="9.73" length="14.11" shape="295.38,-0.00 298.27,1.73 300.77,5.90 301.60,11.73"/>
    </edge>
    <edge id=":cell0_3_28" function="internal">
        <lane id=":cell0_3_28_0" index="0" speed="7.42" length="11.60" shape="295.64,-0.00 297.21,1.16 296.69,4.60 292.84,9.42"/>
    </edge>
    <edge id=":cell0_3_29" function="internal">
        <lane id=":cell0_3_29_0" index="0" speed="3.65" length="2.34" shape="289.87,0.00 289.47,0.80 288.27,1.60"/>
    </edge>
    <edge id=":cell0_3_20" function="internal">
        <lane id=":cell0_3_20_0" index="0" speed="5.47" length="9.74" shape="290.58,7.16 292.52,4.73 292.78,2.99 291.37,1.95 288.27,1.60"/>
    </edge>
    <edge id=":cell0_3_21" function="internal">
        <lane id=":cell0_3_21_0" index="0" speed="13.41" length="23.49" shape="290.58,7.16 295.18,3.33 300.24,0.59 305.76,-1.05 311.73,-1.60"/>
    </edge>
    <edge id=":cell0_3_22" function="internal">
        <lane id=":cell0_3_22_0" index="0" speed="9.73" length="21.49" shape="290.58,7.16 295.29,3.63 300.00,2.45 304.71,3.63 309.42,7.16"/>
    </edge>
    <edge id=":cell0_3_23" function="internal">
        <lane id=":cell0_3_23_0" index="0" speed="7.42" length="19.31" shape="290.58,7.16 295.40,3.31 298.84,2.79 300.91,5.59 301.60,11.73"/>
    </edge>
    <edge id=":cell0_3_24" function="internal">
        <lane id=":cell0_3_24_0" index="0" speed="3.65" length="4.67" shape="290.58,7.16 291.99,6.88 292.84,7.16 293.12,8.01 292.84,9.42"/>
    </edge>
    <edge id=":cell0_4_0" function="internal">
        <lane id=":cell0_4_0_0" index="0" speed="5.47" length="9.74" shape="398.40,11.73 398.05,8.63 397.01,7.22 395.27,7.48 392.84,9.42"/>
    </edge>
    <edge id=":cell0_4_1" function="internal">
        <lane id=":cell0_4_1_0" index="0" speed="8.54" length="16.33" shape="398.40,11.73 397.77,7.30 395.87,4.13 392.70,2.23 388.27,1.60"/>
    </edge>
    <edge id=":cell0_4_2" function="internal">
        <lane id=":cell0_4_2_0" index="0" speed="9.73" length="21.49" shape="398.40,11.73 399.23,5.90 401.73,1.73 405.90,-0.77 411.73,-1.60"/>
    </edge>
    <edge id=":cell0_4_3" function="internal">
        <lane id=":cell0_4_3_0" index="0" speed="7.42" length="19.31" shape="398.40,11.73 399.09,5.59 401.16,2.79 404.60,3.31 409.42,7.16"/>
    </edge>
    <edge id=":cell0_4_4" function="internal">
        <lane id=":cell0_4_4_0" index="0" speed="3.65" length="4.67" shape="398.40,11.73 399.20,10.53 400.00,10.13 400.80,10.53 401.60,11.73"/>
    </edge>
    <edge id=":cell0_4_5" function="internal">
        <lane id=":cell0_4_5_0" index="0" speed="5.47" length="9.74" shape="407.16,9.42 404.73,7.48 402.99,7.22 401.95,8.63 401.60,11.73"/>
    </edge>
    <edge id=":cell0_4_6" function="internal">
        <lane id=":cell0_4_6_0" index="0" speed="8.54" length="16.33" shape="407.16,9.42 403.58,6.74 400.00,5.84 396.42,6.74 392.84,9.42"/>
    </edge>
    <edge id=":cell0_4_7" function="internal">
        <lane id=":cell0_4_7_0" index="0" speed="13.41" length="20.98" shape="407.16,9.42 403.05,6.00 398.53,3.56 393.60,2.09 388.27,1.60"/>
    </edge>
    <edge id=":cell0_4_8" function="internal">
        <lane id=":cell0_4_8_0" index="0" speed="7.42" length="19.31" shape="407.16,9.42 403.31,4.60 402.79,1.16 405.59,-0.91 411.73,-1.60"/>
    </edge>
    <edge id=":cell0_4_9" function="internal">
        <lane id=":cell0_4_9_0" index="0" speed="3.65" length="4.67" shape="407.16,9.42 406.88,8.01 407.16,7.16 408.01,6.88 409.42,7.16"/>
    </edge>
    <edge id=":cell0_4_10" function="internal">
        <lane id=":cell0_4_10_0" index="0" speed="5.47" length="9.74" shape="411.73,1.60 408.63,1.95 407.22,2.99 407.48,4.73 409.42,7.16"/>
    </edge>
    <edge id=":cell0_4_11" function="internal">
        <lane id=":cell0_4_11_0" index="0" speed="8.54" length="16.33" shape="411.73,1.60 407.30,2.23 404.13,4.13 402.23,7.30 401.60,11.73"/>
    </edge>
    <edge id=":cell0_4_12" function="internal">
        <lane id=":cell0_4_12_0" index="0" speed="13.41" length="20.98" shape="411.73,1.60 406.40,2.09 401.47,3.56 396.95,6.00 392.84,9.42"/>
    </edge>
    <edge id=":cell0_4_13" function="internal">
        <lane id=":cell0_4_13_0" index="0" speed="13.41" length="23.45" shape="411.73,1.60 388.27,1.60"/>
    </edge>
    <edge id=":cell0_4_14" function="internal">
        <lane id=":cell0_4_14_0" index="0" speed="3.65" length="2.34" shape="411.73,1.60 410.53,0.80 410.13,0.00"/>
    </edge>
    <edge id=":cell0_4_25" function="internal">
        <lane id=":cell0_4_25_0" index="0" speed="3.65" length="2.34" shape="410.13,0.00 410.53,-0.80 411.73,-1.60"/>
    </edge>
    <edge id=":cell0_4_15" function="internal">
        <lane id=":cell0_4_15_0" index="0" speed="13.41" length="23.45" shape="388.27,-1.60 411.73,-1.60"/>
    </edge>
    <edge id=":cell0_4_16" function="internal">
        <lane id=":cell0_4_16_0" index="0" speed="13.41" length="9.68" shape="388.27,-1.60 394.24,-1.05 397.78,0.00"/>
    </edge>
    <edge id=":cell0_4_17" function="internal">
        <lane id=":cell0_4_17_0" index="0" speed="9.73" length="7.38" shape="388.27,-1.60 394.10,-0.77 395.38,-0.00"/>
    </edge>
    <edge id=":cell0_4_18" function="internal">
        <lane id=":cell0_4_18_0" index="0" speed="7.42" length="7.71" shape="388.27,-1.60 394.41,-0.91 395.64,-0.00"/>
    </edge>
    <edge id=":cell0_4_19" function="internal">
        <lane id=":cell0_4_19_0" index="0" speed="3.65" length="2.34" shape="388.27,-1.60 389.47,-0.80 389.87,0.00"/>
    </edge>
    <edge id=":cell0_4_26" function="internal">
        <lane id=":cell0_4_26_0" index="0" speed="13.41" length="13.81" shape="397.78,0.00 399.76,0.59 404.82,3.33 409.42,7.16"/>
    </edge>
    <edge id=":cell0_4_27" function="internal">
        <lane id=":cell0_4_27_0" index="0" speed="9.73" length="14.11" shape="395.38,-0.00 398.27,1.73 400.77,5.90 401.60,11.73"/>
    </edge>
    <edge id=":cell0_4_28" function="internal">
        <lane id=":cell0_4_28_0" index="0" speed="7.42" length="11.60" shape="395.64,-0.00 397.21,1.16 396.69,4.60 392.84,9.42"/>
    </edge>
    <edge id=":cell0_4_29" function="internal">
        <lane id=":cell0_4_29_0" index="0" speed="3.65" length="2.34" shape="389.87,0.00 389.47,0.80 388.27,1.60"/>
    </edge>
    <edge id=":cell0_4_20" function="internal">
        <lane id=":cell0_4_20_0" index="0" speed="5.47" length="9.74" shape="390.58,7.16 392.52,4.73 392.78,2.99 391.37,1.95 388.27,1.60"/>
    </edge>
    <edge id=":cell0_4_21" function="internal">
        <lane id=":cell0_4_21_0" index="0" speed="13.41" length="23.49" shape="390.58,7.16 395.18,3.33 400.24,0.59 405.76,-1.05 411.73,-1.60"/>
    </edge>
    <edge id=":cell0_4_22" function="internal">
        <lane id=":cell0_4_22_0" index="0" speed="9.73" length="21.49" shape="390.58,7.16 395.29,3.63 400.00,2.45 404.71,3.63 409.42,7.16"/>
    </edge>
    <edge id=":cell0_4_23" function="internal">
        <lane id=":cell0_4_23_0" index="0" speed="7.42" length="19.31" shape="390.58,7.16 395.40,3.31 398.84,2.79 400.91,5.59 401.60,11.73"/>
    </edge>
    <edge id=":cell0_4_24" function="internal">
        <lane id=":cell0_4_24_0" index="0" speed="3.65" length="4.67" shape="390.58,7.16 391.99,6.88 392.84,7.16 393.12,8.01 392.84,9.42"/>
    </edge>
    <edge id=":cell0_5_0" function="internal">
        <lane id=":cell0_5_0_0" index="0" speed="5.47" length="9.74" shape="498.40,11.73 498.05,8.63 497.01,7.22 495.27,7.48 492.84,9.42"/>
    </edge>
    <edge id=":cell0_5_1" function="internal">
        <lane id=":cell0_5_1_0" index="0" speed="8.54" length="16.33" shape="498.40,11.73 497.77,7.30 495.87,4.13 492.70,2.23 488.27,1.60"/>
    </edge>
    <edge id=":cell0_5_2" function="internal">
        <lane id=":cell0_5_2_0" index="0" speed="9.73" length="21.49" shape="498.40,11.73 499.23,5.90 501.73,1.73 505.90,-0.77 511.73,-1.60"/>
    </edge>
    <edge id=":cell0_5_3" function="internal">
        <lane id=":cell0_5_3_0" index="0" speed="7.42" length="19.31" shape="498.40,11.73 499.09,5.59 501.16,2.79 504.60,3.31 509.42,7.16"/>
    </edge>
    <edge id=":cell0_5_4" function="internal">
        <lane id=":cell0_5_4_0" index="0" speed="3.65" length="4.67" shape="498.40,11.73 499.20,10.53 500.00,10.13 500.80,10.53 501.60,11.73"/>
    </edge>
    <edge id=":cell0_5_5" function="internal">
        <lane id=":cell0_5_5_0" index="0" speed="5.47" length="9.74" shape="507.16,9.42 504.73,7.48 502.99,7.22 501.95,8.63 501.60,11.73"/>
    </edge>
    <edge id=":cell0_5_6" function="internal">
        <lane id=":cell0_5_6_0" index="0" speed="8.54" length="16.33" shape="507.16,9.42 503.58,6.74 500.00,5.84 496.42,6.74 492.84,9.42"/>
    </edge>
    <edge id=":cell0_5_7" function="internal">
        <lane id=":cell0_5_7_0" index="0" speed="13.41" length="20.98" shape="507.16,9.42 503.05,6.00 498.53,3.56 493.60,2.09 488.27,1.60"/>
    </edge>
    <edge id=":cell0_5_8" function="internal">
        <lane id=":cell0_5_8_0" index="0" speed="7.42" length="19.31" shape="507.16,9.42 503.31,4.60 502.79,1.16 505.59,-0.91 511.73,-1.60"/>
    </edge>
    <edge id=":cell0_5_9" function="internal">
        <lane id=":cell0_5_9_0" index="0" speed="3.65" length="4.67" shape="507.16,9.42 506.88,8.01 507.16,7.16 508.01,6.88 509.42,7.16"/>
    </edge>
    <edge id=":cell0_5_10" function="internal">
        <lane id=":cell0_5_10_0" index="0" speed="5.47" length="9.74" shape="511.73,1.60 508.63,1.95 507.22,2.99 507.48,4.73 509.42,7.16"/>
    </edge>
    <edge id=":cell0_5_11" function="internal">
        <lane id=":cell0_5_11_0" index="0" speed="8.54" length="16.33" shape="511.73,1.60 507.30,2.23 504.13,4.13 502.23,7.30 501.60,11.73"/>
    </edge>
    <edge id=":cell0_5_12" function="internal">
        <lane id=":cell0_5_12_0" index="0" speed="13.41" length="20.98" shape="511.73,1.60 506.40,2.09 501.47,3.56 496.95,6.00 492.84,9.42"/>
    </edge>
    <edge id=":cell0_5_13" function="internal">
        <lane id=":cell0_5_13_0" index="0" speed="13.41" length="23.45" shape="511.73,1.60 488.27,1.60"/>
    </edge>
    <edge id=":cell0_5_14" function="internal">
        <lane id=":cell0_5_14_0" index="0" speed="3.65" length="2.34" shape="511.73,1.60 510.53,0.80 510.13,0.00"/>
    </edge>
    <edge id=":cell0_5_25" function="internal">
        <lane id=":cell0_5_25_0" index="0" speed="3.65" length="2.34" shape="510.13,0.00 510.53,-0.80 511.73,-1.60"/>
    </edge>
    <edge id=":cell0_5_15" function="internal">
        <lane id=":cell0_5_15_0" index="0" speed="13.41" length="23.45" shape="488.27,-1.60 511.73,-1.60"/>
    </edge>
    <edge id=":cell0_5_16" function="internal">
        <lane id=":cell0_5_16_0" index="0" speed="13.41" length="7.19" shape="488.27,-1.60 493.19,-0.73 495.26,0.00"/>
    </edge>
    <edge id=":cell0_5_17" function="internal">
        <lane id=":cell0_5_17_0" index="0" speed="9.73" length="7.38" shape="488.27,-1.60 494.10,-0.77 495.38,0.00"/>
    </edge>
    <edge id=":cell0_5_18" function="internal">
        <lane id=":cell0_5_18_0" index="0" speed="7.42" length="7.71" shape="488.27,-1.60 494.41,-0.91 495.64,0.00"/>
    </edge>
    <edge id=":cell0_5_19" function="internal">