<?xml version="1.0" encoding="UTF-8"?>

<!-- generated on 06/15/19 18:12:39 by Eclipse SUMO netedit Version 1.2.0
<configuration xmlns:xsi="http://www.w3.org/2001/XMLSchema-instance" xsi:noNamespaceSchemaLocation="http://sumo.dlr.de/xsd/netconvertConfiguration.xsd">

    <input>
        <sumo-net-file value="grid5.net.xml"/>
    </input>

    <output>
        <output-file value="grid5.net.xml"/>
    </output>

    <processing>
        <geometry.max-grade.fix value="false"/>
        <offset.disable-normalization value="true"/>
        <lefthand value="false"/>
    </processing>

    <junctions>
        <no-turnarounds value="true"/>
        <junctions.corner-detail value="5"/>
        <junctions.limit-turn-speed value="5.5"/>
        <rectangular-lane-cut value="false"/>
    </junctions>

    <pedestrian>
        <walkingareas value="false"/>
    </pedestrian>

</configuration>
-->

<net version="1.1" junctionCornerDetail="5" limitTurnSpeed="5.50" xmlns:xsi="http://www.w3.org/2001/XMLSchema-instance" xsi:noNamespaceSchemaLocation="http://sumo.dlr.de/xsd/net_file.xsd">

    <location netOffset="0.00,0.00" convBoundary="-100.00,-1900.00,1900.00,100.00" origBoundary="-10000000000.00,-10000000000.00,10000000000.00,10000000000.00" projParameter="!"/>

    <edge id=":gneJ101_0" function="internal">
        <lane id=":gneJ101_0_0" index="0" speed="5.47" length="9.74" shape="1495.20,-280.55 1494.85,-283.64 1493.81,-285.06 1492.07,-284.79 1489.64,-282.85"/>
    </edge>
    <edge id=":gneJ101_1" function="internal">
        <lane id=":gneJ101_1_0" index="0" speed="10.18" length="23.63" shape="1495.20,-280.55 1494.28,-286.96 1491.54,-291.54 1486.96,-294.28 1480.55,-295.20"/>
    </edge>
    <edge id=":gneJ101_2" function="internal">
        <lane id=":gneJ101_2_0" index="0" speed="18.71" length="32.92" shape="1495.20,-280.55 1494.26,-288.43 1491.68,-296.55 1487.76,-304.13 1482.85,-310.36"/>
    </edge>
    <edge id=":gneJ101_3" function="internal">
        <lane id=":gneJ101_3_0" index="0" speed="17.80" length="29.74" shape="1498.40,-280.55 1498.63,-288.14 1499.66,-295.62 1502.02,-302.54 1506.22,-308.49"/>
    </edge>
    <edge id=":gneJ101_4" function="internal">
        <lane id=":gneJ101_4_0" index="0" speed="8.14" length="23.57" shape="1498.40,-280.55 1499.99,-286.78 1504.01,-290.31 1509.35,-290.66 1514.89,-287.38"/>
    </edge>
    <edge id=":gneJ101_5" function="internal">
        <lane id=":gneJ101_5_0" index="0" speed="3.65" length="4.67" shape="1498.40,-280.55 1499.20,-281.75 1500.00,-282.15 1500.80,-281.75 1501.60,-280.55"/>
    </edge>
    <edge id=":gneJ101_6" function="internal">
        <lane id=":gneJ101_6_0" index="0" speed="5.47" length="9.74" shape="1510.36,-282.85 1507.93,-284.79 1506.19,-285.06 1505.15,-283.64 1504.80,-280.55"/>
    </edge>
    <edge id=":gneJ101_7" function="internal">
        <lane id=":gneJ101_7_0" index="0" speed="10.18" length="23.63" shape="1510.36,-282.85 1505.18,-286.74 1500.00,-288.03 1494.82,-286.74 1489.64,-282.85"/>
    </edge>
    <edge id=":gneJ101_8" function="internal">
        <lane id=":gneJ101_8_0" index="0" speed="18.77" length="33.11" shape="1510.36,-282.85 1503.87,-288.25 1496.73,-292.11 1488.96,-294.43 1480.55,-295.20"/>
    </edge>
    <edge id=":gneJ101_9" function="internal">
        <lane id=":gneJ101_9_0" index="0" speed="25.00" length="38.90" shape="1510.36,-282.85 1482.85,-310.36"/>
        <lane id=":gneJ101_9_1" index="1" speed="25.00" length="38.90" shape="1512.62,-285.11 1485.11,-312.62"/>
    </edge>
    <edge id=":gneJ101_11" function="internal">
        <lane id=":gneJ101_11_0" index="0" speed="10.87" length="11.87" shape="1512.62,-285.11 1506.64,-292.16 1505.48,-294.52"/>
    </edge>
    <edge id=":gneJ101_36" function="internal">
        <lane id=":gneJ101_36_0" index="0" speed="10.87" length="15.18" shape="1505.48,-294.52 1503.58,-298.40 1503.44,-303.84 1506.22,-308.49"/>
    </edge>
    <edge id=":gneJ101_12" function="internal">
        <lane id=":gneJ101_12_0" index="0" speed="8.71" length="16.99" shape="1510.75,-303.96 1509.66,-301.58 1510.37,-298.40 1512.86,-294.42 1517.15,-289.64"/>
    </edge>
    <edge id=":gneJ101_13" function="internal">
        <lane id=":gneJ101_13_0" index="0" speed="16.23" length="24.66" shape="1510.75,-303.96 1508.15,-300.27 1506.29,-295.13 1505.17,-288.56 1504.80,-280.55"/>
    </edge>
    <edge id=":gneJ101_14" function="internal">
        <lane id=":gneJ101_14_0" index="0" speed="25.00" length="29.85" shape="1510.75,-303.96 1489.64,-282.85"/>
        <lane id=":gneJ101_14_1" index="1" speed="25.00" length="29.85" shape="1508.49,-306.22 1487.38,-285.11"/>
    </edge>
    <edge id=":gneJ101_16" function="internal">
        <lane id=":gneJ101_16_0" index="0" speed="17.78" length="29.67" shape="1508.49,-306.22 1503.81,-302.80 1497.59,-300.36 1489.84,-298.89 1480.55,-298.40"/>
    </edge>
    <edge id=":gneJ101_17" function="internal">
        <lane id=":gneJ101_17_0" index="0" speed="10.87" length="27.05" shape="1508.49,-306.22 1503.84,-303.44 1498.40,-303.58 1492.16,-306.64 1485.11,-312.62"/>
    </edge>
    <edge id=":gneJ101_18" function="internal">
        <lane id=":gneJ101_18_0" index="0" speed="8.71" length="16.99" shape="1489.64,-317.15 1494.42,-312.86 1498.40,-310.37 1501.58,-309.66 1503.96,-310.75"/>
    </edge>
    <edge id=":gneJ101_19" function="internal">
        <lane id=":gneJ101_19_0" index="0" speed="25.00" length="38.90" shape="1489.64,-317.15 1517.15,-289.64"/>
        <lane id=":gneJ101_19_1" index="1" speed="25.00" length="38.90" shape="1487.38,-314.89 1514.89,-287.38"/>
    </edge>
    <edge id=":gneJ101_21" function="internal">
        <lane id=":gneJ101_21_0" index="0" speed="20.03" length="9.85" shape="1487.38,-314.89 1492.58,-307.94 1493.11,-306.89"/>
    </edge>
    <edge id=":gneJ101_22" function="internal">
        <lane id=":gneJ101_22_0" index="0" speed="12.13" length="9.86" shape="1487.38,-314.89 1492.96,-307.44 1493.09,-306.91"/>
    </edge>
    <edge id=":gneJ101_23" function="internal">
        <lane id=":gneJ101_23_0" index="0" speed="8.14" length="6.43" shape="1487.38,-314.89 1490.66,-309.35"/>
    </edge>
    <edge id=":gneJ101_37" function="internal">
        <lane id=":gneJ101_37_0" index="0" speed="20.03" length="27.91" shape="1493.11,-306.89 1497.14,-298.82 1500.37,-289.14 1501.60,-280.55"/>
    </edge>
    <edge id=":gneJ101_38" function="internal">
        <lane id=":gneJ101_38_0" index="0" speed="12.13" length="24.09" shape="1493.09,-306.91 1494.82,-300.00 1492.96,-292.56 1487.38,-285.11"/>
    </edge>
    <edge id=":gneJ101_39" function="internal">
        <lane id=":gneJ101_39_0" index="0" speed="8.14" length="17.13" shape="1490.66,-309.35 1490.31,-304.01 1486.78,-299.99 1480.55,-298.40"/>
    </edge>
    <edge id=":gneJ101_24" function="internal">
        <lane id=":gneJ101_24_0" index="0" speed="5.47" length="9.74" shape="1480.55,-304.80 1483.64,-305.15 1485.06,-306.19 1484.79,-307.93 1482.85,-310.36"/>
    </edge>
    <edge id=":gneJ101_25" function="internal">
        <lane id=":gneJ101_25_0" index="0" speed="16.23" length="24.66" shape="1480.55,-304.80 1488.56,-305.17 1495.13,-306.29 1500.27,-308.15 1503.96,-310.75"/>
    </edge>
    <edge id=":gneJ101_26" function="internal">
        <lane id=":gneJ101_26_0" index="0" speed="20.13" length="38.14" shape="1480.55,-301.60 1490.24,-300.71 1499.19,-298.04 1507.41,-293.60 1514.89,-287.38"/>
    </edge>
    <edge id=":gneJ101_27" function="internal">
        <lane id=":gneJ101_27_0" index="0" speed="12.13" length="33.95" shape="1480.55,-301.60 1489.76,-300.28 1496.34,-296.34 1500.28,-289.76 1501.60,-280.55"/>
    </edge>
    <edge id=":gneJ101_28" function="internal">
        <lane id=":gneJ101_28_0" index="0" speed="8.14" length="23.57" shape="1480.55,-301.60 1486.78,-300.01 1490.31,-295.99 1490.66,-290.65 1487.38,-285.11"/>
    </edge>
    <edge id=":gneJ101_29" function="internal">
        <lane id=":gneJ101_29_0" index="0" speed="3.65" length="4.67" shape="1480.55,-301.60 1481.75,-300.80 1482.15,-300.00 1481.75,-299.20 1480.55,-298.40"/>
    </edge>
    <edge id=":gneJ101_30" function="internal">
        <lane id=":gneJ101_30_0" index="0" speed="5.47" length="9.74" shape="1482.85,-289.64 1484.79,-292.07 1485.06,-293.81 1483.64,-294.85 1480.55,-295.20"/>
    </edge>
    <edge id=":gneJ101_31" function="internal">
        <lane id=":gneJ101_31_0" index="0" speed="10.18" length="23.63" shape="1482.85,-289.64 1486.74,-294.82 1488.03,-300.00 1486.74,-305.18 1482.85,-310.36"/>
    </edge>
    <edge id=":gneJ101_32" function="internal">
        <lane id=":gneJ101_32_0" index="0" speed="25.00" length="29.85" shape="1482.85,-289.64 1503.96,-310.75"/>
        <lane id=":gneJ101_32_1" index="1" speed="25.00" length="29.85" shape="1485.11,-287.38 1506.22,-308.49"/>
    </edge>
    <edge id=":gneJ101_34" function="internal">
        <lane id=":gneJ101_34_0" index="0" speed="12.13" length="33.95" shape="1485.11,-287.38 1492.56,-292.96 1500.00,-294.82 1507.44,-292.96 1514.89,-287.38"/>
    </edge>
    <edge id=":gneJ101_35" function="internal">
        <lane id=":gneJ101_35_0" index="0" speed="8.14" length="23.57" shape="1485.11,-287.38 1490.65,-290.66 1495.99,-290.31 1500.01,-286.78 1501.60,-280.55"/>
    </edge>
    <edge id=":gneJ104_0" function="internal">
        <lane id=":gneJ104_0_0" index="0" speed="7.66" length="12.90" shape="1703.39,-294.34 1701.27,-297.17 1700.57,-300.00 1701.27,-302.83 1703.39,-305.66"/>
    </edge>
    <edge id=":gneJ104_1" function="internal">
        <lane id=":gneJ104_1_0" index="0" speed="3.90" length="2.58" shape="1707.92,-301.13 1707.50,-300.57 1707.35,-300.00 1707.50,-299.43 1707.92,-298.87"/>
    </edge>
    <edge id=":gneJ108_0" function="internal">
        <lane id=":gneJ108_0_0" index="0" speed="25.00" length="29.85" shape="-104.80,-480.55 -104.80,-510.40"/>
        <lane id=":gneJ108_0_1" index="1" speed="25.00" length="29.85" shape="-101.60,-480.55 -101.60,-510.40"/>
    </edge>
    <edge id=":gneJ108_2" function="internal">
        <lane id=":gneJ108_2_0" index="0" speed="12.13" length="9.86" shape="-101.60,-480.55 -100.28,-489.76 -100.00,-490.23"/>
    </edge>
    <edge id=":gneJ108_3" function="internal">
        <lane id=":gneJ108_3_0" index="0" speed="8.14" length="6.43" shape="-101.60,-480.55 -100.01,-486.78"/>
    </edge>
    <edge id=":gneJ108_4" function="internal">
        <lane id=":gneJ108_4_0" index="0" speed="3.65" length="2.34" shape="-101.60,-480.55 -100.80,-481.75 -100.00,-482.15"/>
    </edge>
    <edge id=":gneJ108_19" function="internal">
        <lane id=":gneJ108_19_0" index="0" speed="12.13" length="24.09" shape="-100.00,-490.23 -96.34,-496.34 -89.76,-500.28 -80.55,-501.60"/>
    </edge>
    <edge id=":gneJ108_20" function="internal">
        <lane id=":gneJ108_20_0" index="0" speed="8.14" length="17.13" shape="-100.01,-486.78 -95.99,-490.31 -90.65,-490.66 -85.11,-487.38"/>
    </edge>
    <edge id=":gneJ108_21" function="internal">
        <lane id=":gneJ108_21_0" index="0" speed="3.65" length="2.34" shape="-100.00,-482.15 -99.20,-481.75 -98.40,-480.55"/>
    </edge>
    <edge id=":gneJ108_5" function="internal">
        <lane id=":gneJ108_5_0" index="0" speed="5.47" length="9.74" shape="-89.64,-482.85 -92.07,-484.79 -93.81,-485.06 -94.85,-483.64 -95.20,-480.55"/>
    </edge>
    <edge id=":gneJ108_6" function="internal">
        <lane id=":gneJ108_6_0" index="0" speed="18.50" length="32.17" shape="-89.64,-482.85 -96.27,-490.26 -101.01,-497.32 -103.85,-504.03 -104.80,-510.40"/>
    </edge>
    <edge id=":gneJ108_7" function="internal">
        <lane id=":gneJ108_7_0" index="0" speed="17.78" length="29.67" shape="-87.38,-485.11 -93.60,-492.03 -98.04,-498.55 -100.71,-504.67 -101.60,-510.40"/>
    </edge>
    <edge id=":gneJ108_8" function="internal">
        <lane id=":gneJ108_8_0" index="0" speed="8.14" length="23.57" shape="-87.38,-485.11 -90.66,-490.65 -90.31,-495.99 -86.78,-500.01 -80.55,-501.60"/>
    </edge>
    <edge id=":gneJ108_9" function="internal">
        <lane id=":gneJ108_9_0" index="0" speed="5.47" length="9.74" shape="-80.55,-495.20 -83.64,-494.85 -85.06,-493.81 -84.79,-492.07 -82.85,-489.64"/>
    </edge>
    <edge id=":gneJ108_10" function="internal">
        <lane id=":gneJ108_10_0" index="0" speed="10.18" length="23.63" shape="-80.55,-495.20 -86.96,-494.28 -91.54,-491.54 -94.28,-486.96 -95.20,-480.55"/>
    </edge>
    <edge id=":gneJ108_11" function="internal">
        <lane id=":gneJ108_11_0" index="0" speed="11.20" length="28.79" shape="-80.55,-498.40 -88.36,-497.28 -93.94,-493.94 -97.28,-488.36 -98.40,-480.55"/>
    </edge>
    <edge id=":gneJ108_12" function="internal">
        <lane id=":gneJ108_12_0" index="0" speed="10.87" length="27.05" shape="-80.55,-498.40 -89.76,-499.15 -96.34,-501.40 -100.28,-505.15 -101.60,-510.40"/>
    </edge>
    <edge id=":gneJ108_13" function="internal">
        <lane id=":gneJ108_13_0" index="0" speed="3.65" length="4.67" shape="-80.55,-498.40 -81.75,-499.20 -82.15,-500.00 -81.75,-500.80 -80.55,-501.60"/>
    </edge>
    <edge id=":gneJ108_14" function="internal">
        <lane id=":gneJ108_14_0" index="0" speed="8.71" length="16.99" shape="-95.20,-510.40 -94.28,-507.95 -91.54,-506.20 -86.96,-505.15 -80.55,-504.80"/>
    </edge>
    <edge id=":gneJ108_15" function="internal">
        <lane id=":gneJ108_15_0" index="0" speed="16.59" length="25.79" shape="-95.20,-510.40 -94.57,-504.11 -92.68,-498.18 -89.53,-492.60 -85.11,-487.38"/>
    </edge>
    <edge id=":gneJ108_16" function="internal">
        <lane id=":gneJ108_16_0" index="0" speed="25.00" length="29.85" shape="-95.20,-510.40 -95.20,-480.55"/>
        <lane id=":gneJ108_16_1" index="1" speed="25.00" length="29.85" shape="-98.40,-510.40 -98.40,-480.55"/>
    </edge>
    <edge id=":gneJ108_18" function="internal">
        <lane id=":gneJ108_18_0" index="0" speed="3.65" length="2.34" shape="-98.40,-510.40 -99.20,-509.20 -100.00,-508.80"/>
    </edge>
    <edge id=":gneJ108_22" function="internal">
        <lane id=":gneJ108_22_0" index="0" speed="3.65" length="2.34" shape="-100.00,-508.80 -100.80,-509.20 -101.60,-510.40"/>
    </edge>
    <edge id=":gneJ109_0" function="internal">
        <lane id=":gneJ109_0_0" index="0" speed="5.47" length="9.74" shape="95.20,-480.55 94.85,-483.64 93.81,-485.06 92.07,-484.79 89.64,-482.85"/>
    </edge>
    <edge id=":gneJ109_1" function="internal">
        <lane id=":gneJ109_1_0" index="0" speed="10.18" length="23.63" shape="95.20,-480.55 94.28,-486.96 91.54,-491.54 86.96,-494.28 80.55,-495.20"/>
    </edge>
    <edge id=":gneJ109_2" function="internal">
        <lane id=":gneJ109_2_0" index="0" speed="18.77" length="33.11" shape="95.20,-480.55 94.43,-488.96 92.11,-496.73 88.25,-503.87 82.85,-510.36"/>
    </edge>
    <edge id=":gneJ109_3" function="internal">
        <lane id=":gneJ109_3_0" index="0" speed="20.13" length="38.14" shape="98.40,-480.55 99.29,-490.24 101.96,-499.19 106.40,-507.41 112.62,-514.89"/>
    </edge>
    <edge id=":gneJ109_4" function="internal">
        <lane id=":gneJ109_4_0" index="0" speed="12.13" length="33.95" shape="98.40,-480.55 99.72,-489.76 103.66,-496.34 110.24,-500.28 119.45,-501.60"/>
    </edge>
    <edge id=":gneJ109_5" function="internal">
        <lane id=":gneJ109_5_0" index="0" speed="8.14" length="23.57" shape="98.40,-480.55 99.99,-486.78 104.01,-490.31 109.35,-490.66 114.89,-487.38"/>
    </edge>
    <edge id=":gneJ109_6" function="internal">
        <lane id=":gneJ109_6_0" index="0" speed="3.65" length="4.67" shape="98.40,-480.55 99.20,-481.75 100.00,-482.15 100.80,-481.75 101.60,-480.55"/>
    </edge>
    <edge id=":gneJ109_7" function="internal">
        <lane id=":gneJ109_7_0" index="0" speed="5.47" length="9.74" shape="110.36,-482.85 107.93,-484.79 106.19,-485.06 105.15,-483.64 104.80,-480.55"/>
    </edge>
    <edge id=":gneJ109_8" function="internal">
        <lane id=":gneJ109_8_0" index="0" speed="10.18" length="23.63" shape="110.36,-482.85 105.18,-486.74 100.00,-488.03 94.82,-486.74 89.64,-482.85"/>
    </edge>
    <edge id=":gneJ109_9" function="internal">
        <lane id=":gneJ109_9_0" index="0" speed="18.77" length="33.11" shape="110.36,-482.85 103.87,-488.25 96.73,-492.11 88.96,-494.43 80.55,-495.20"/>
    </edge>
    <edge id=":gneJ109_10" function="internal">
        <lane id=":gneJ109_10_0" index="0" speed="25.00" length="38.90" shape="110.36,-482.85 82.85,-510.36"/>
        <lane id=":gneJ109_10_1" index="1" speed="25.00" length="38.90" shape="112.62,-485.11 85.11,-512.62"/>
    </edge>
    <edge id=":gneJ109_12" function="internal">
        <lane id=":gneJ109_12_0" index="0" speed="12.13" length="9.86" shape="112.62,-485.11 107.04,-492.56 106.91,-493.09"/>
    </edge>
    <edge id=":gneJ109_13" function="internal">
        <lane id=":gneJ109_13_0" index="0" speed="8.14" length="6.43" shape="112.62,-485.11 109.34,-490.65"/>
    </edge>
    <edge id=":gneJ109_51" function="internal">
        <lane id=":gneJ109_51_0" index="0" speed="12.13" length="24.09" shape="106.91,-493.09 105.18,-500.00 107.04,-507.44 112.62,-514.89"/>
    </edge>
    <edge id=":gneJ109_52" function="internal">
        <lane id=":gneJ109_52_0" index="0" speed="8.14" length="17.13" shape="109.34,-490.65 109.69,-495.99 113.22,-500.01 119.45,-501.60"/>
    </edge>
    <edge id=":gneJ109_14" function="internal">
        <lane id=":gneJ109_14_0" index="0" speed="5.47" length="9.74" shape="119.45,-495.20 116.36,-494.85 114.94,-493.81 115.21,-492.07 117.15,-489.64"/>
    </edge>
    <edge id=":gneJ109_15" function="internal">
        <lane id=":gneJ109_15_0" index="0" speed="10.18" length="23.63" shape="119.45,-495.20 113.04,-494.28 108.46,-491.54 105.72,-486.96 104.80,-480.55"/>
    </edge>
    <edge id=":gneJ109_16" function="internal">
        <lane id=":gneJ109_16_0" index="0" speed="18.77" length="33.11" shape="119.45,-495.20 111.04,-494.43 103.27,-492.11 96.13,-488.25 89.64,-482.85"/>
    </edge>
    <edge id=":gneJ109_17" function="internal">
        <lane id=":gneJ109_17_0" index="0" speed="25.00" length="38.90" shape="119.45,-495.20 80.55,-495.20"/>
        <lane id=":gneJ109_17_1" index="1" speed="25.00" length="38.90" shape="119.45,-498.40 80.55,-498.40"/>
    </edge>
    <edge id=":gneJ109_19" function="internal">
        <lane id=":gneJ109_19_0" index="0" speed="20.03" length="37.76" shape="119.45,-498.40 110.86,-499.63 101.18,-502.86 92.06,-507.42 85.11,-512.62"/>
    </edge>
    <edge id=":gneJ109_20" function="internal">
        <lane id=":gneJ109_20_0" index="0" speed="8.14" length="23.57" shape="119.45,-498.40 113.22,-499.99 109.69,-504.01 109.34,-509.35 112.62,-514.89"/>
    </edge>
    <edge id=":gneJ109_21" function="internal">
        <lane id=":gneJ109_21_0" index="0" speed="3.65" length="4.67" shape="119.45,-498.40 118.25,-499.20 117.85,-500.00 118.25,-500.80 119.45,-501.60"/>
    </edge>
    <edge id=":gneJ109_22" function="internal">
        <lane id=":gneJ109_22_0" index="0" speed="5.47" length="9.74" shape="117.15,-510.36 115.21,-507.93 114.94,-506.19 116.36,-505.15 119.45,-504.80"/>
    </edge>
    <edge id=":gneJ109_23" function="internal">
        <lane id=":gneJ109_23_0" index="0" speed="10.18" length="23.63" shape="117.15,-510.36 113.26,-505.18 111.97,-500.00 113.26,-494.82 117.15,-489.64"/>
    </edge>
    <edge id=":gneJ109_24" function="internal">
        <lane id=":gneJ109_24_0" index="0" speed="18.77" length="33.11" shape="117.15,-510.36 111.75,-503.87 107.89,-496.73 105.57,-488.96 104.80,-480.55"/>
    </edge>
    <edge id=":gneJ109_25" function="internal">
        <lane id=":gneJ109_25_0" index="0" speed="25.00" length="38.90" shape="117.15,-510.36 89.64,-482.85"/>
        <lane id=":gneJ109_25_1" index="1" speed="25.00" length="38.90" shape="114.89,-512.62 87.38,-485.11"/>
    </edge>
    <edge id=":gneJ109_27" function="internal">
        <lane id=":gneJ109_27_0" index="0" speed="20.13" length="38.14" shape="114.89,-512.62 107.41,-506.40 99.19,-501.96 90.24,-499.29 80.55,-498.40"/>
    </edge>
    <edge id=":gneJ109_28" function="internal">
        <lane id=":gneJ109_28_0" index="0" speed="12.13" length="33.95" shape="114.89,-512.62 107.44,-507.04 100.00,-505.18 92.56,-507.04 85.11,-512.62"/>
    </edge>
    <edge id=":gneJ109_29" function="internal">
        <lane id=":gneJ109_29_0" index="0" speed="10.18" length="23.63" shape="89.64,-517.15 94.82,-513.26 100.00,-511.97 105.18,-513.26 110.36,-517.15"/>
    </edge>
    <edge id=":gneJ109_30" function="internal">
        <lane id=":gneJ109_30_0" index="0" speed="18.77" length="33.11" shape="89.64,-517.15 96.13,-511.75 103.27,-507.89 111.04,-505.57 119.45,-504.80"/>
    </edge>
    <edge id=":gneJ109_31" function="internal">
        <lane id=":gneJ109_31_0" index="0" speed="25.00" length="38.90" shape="89.64,-517.15 117.15,-489.64"/>
        <lane id=":gneJ109_31_1" index="1" speed="25.00" length="38.90" shape="87.38,-514.89 114.89,-487.38"/>
    </edge>
    <edge id=":gneJ109_33" function="internal">
        <lane id=":gneJ109_33_0" index="0" speed="20.03" length="9.85" shape="87.38,-514.89 92.58,-507.94 93.11,-506.89"/>
    </edge>
    <edge id=":gneJ109_34" function="internal">
        <lane id=":gneJ109_34_0" index="0" speed="12.13" length="9.86" shape="87.38,-514.89 92.96,-507.44 93.09,-506.91"/>
    </edge>
    <edge id=":gneJ109_35" function="internal">
        <lane id=":gneJ109_35_0" index="0" speed="8.14" length="6.43" shape="87.38,-514.89 90.66,-509.35"/>
    </edge>
    <edge id=":gneJ109_53" function="internal">
        <lane id=":gneJ109_53_0" index="0" speed="20.03" length="27.91" shape="93.11,-506.89 97.14,-498.82 100.37,-489.14 101.60,-480.55"/>
    </edge>
    <edge id=":gneJ109_54" function="internal">
        <lane id=":gneJ109_54_0" index="0" speed="12.13" length="24.09" shape="93.09,-506.91 94.82,-500.00 92.96,-492.56 87.38,-485.11"/>
    </edge>
    <edge id=":gneJ109_55" function="internal">
        <lane id=":gneJ109_55_0" index="0" speed="8.14" length="17.13" shape="90.66,-509.35 90.31,-504.01 86.78,-499.99 80.55,-498.40"/>
    </edge>
    <edge id=":gneJ109_36" function="internal">
        <lane id=":gneJ109_36_0" index="0" speed="5.47" length="9.74" shape="80.55,-504.80 83.64,-505.15 85.06,-506.19 84.79,-507.93 82.85,-510.36"/>
    </edge>
    <edge id=":gneJ109_37" function="internal">
        <lane id=":gneJ109_37_0" index="0" speed="18.77" length="33.11" shape="80.55,-504.80 88.96,-505.57 96.73,-507.89 103.87,-511.75 110.36,-517.15"/>
    </edge>
    <edge id=":gneJ109_38" function="internal">
        <lane id=":gneJ109_38_0" index="0" speed="25.00" length="38.90" shape="80.55,-504.80 119.45,-504.80"/>
        <lane id=":gneJ109_38_1" index="1" speed="25.00" length="38.90" shape="80.55,-501.60 119.45,-501.60"/>
    </edge>
    <edge id=":gneJ109_40" function="internal">
        <lane id=":gneJ109_40_0" index="0" speed="20.13" length="38.14" shape="80.55,-501.60 90.24,-500.71 99.19,-498.04 107.41,-493.60 114.89,-487.38"/>
    </edge>
    <edge id=":gneJ109_41" function="internal">
        <lane id=":gneJ109_41_0" index="0" speed="12.13" length="33.95" shape="80.55,-501.60 89.76,-500.28 96.34,-496.34 100.28,-489.76 101.60,-480.55"/>
    </edge>
    <edge id=":gneJ109_42" function="internal">
        <lane id=":gneJ109_42_0" index="0" speed="8.14" length="23.57" shape="80.55,-501.60 86.78,-500.01 90.31,-495.99 90.66,-490.65 87.38,-485.11"/>
    </edge>
    <edge id=":gneJ109_43" function="internal">
        <lane id=":gneJ109_43_0" index="0" speed="3.65" length="4.67" shape="80.55,-501.60 81.75,-500.80 82.15,-500.00 81.75,-499.20 80.55,-498.40"/>
    </edge>
    <edge id=":gneJ109_44" function="internal">
        <lane id=":gneJ109_44_0" index="0" speed="5.47" length="9.74" shape="82.85,-489.64 84.79,-492.07 85.06,-493.81 83.64,-494.85 80.55,-495.20"/>
    </edge>
    <edge id=":gneJ109_45" function="internal">
        <lane id=":gneJ109_45_0" index="0" speed="10.18" length="23.63" shape="82.85,-489.64 86.74,-494.82 88.03,-500.00 86.74,-505.18 82.85,-510.36"/>
    </edge>
    <edge id=":gneJ109_46" function="internal">
        <lane id=":gneJ109_46_0" index="0" speed="25.00" length="38.90" shape="82.85,-489.64 110.36,-517.15"/>
        <lane id=":gneJ109_46_1" index="1" speed="25.00" length="38.90" shape="85.11,-487.38 112.62,-514.89"/>
    </edge>
    <edge id=":gneJ109_48" function="internal">
        <lane id=":gneJ109_48_0" index="0" speed="20.13" length="38.14" shape="85.11,-487.38 92.59,-493.60 100.81,-498.04 109.76,-500.71 119.45,-501.60"/>
    </edge>
    <edge id=":gneJ109_49" function="internal">
        <lane id=":gneJ109_49_0" index="0" speed="12.13" length="33.95" shape="85.11,-487.38 92.56,-492.96 100.00,-494.82 107.44,-492.96 114.89,-487.38"/>
    </edge>
    <edge id=":gneJ109_50" function="internal">
        <lane id=":gneJ109_50_0" index="0" speed="8.14" length="23.57" shape="85.11,-487.38 90.65,-490.66 95.99,-490.31 100.01,-486.78 101.60,-480.55"/>
    </edge>
    <edge id=":gneJ110_0" function="internal">
        <lane id=":gneJ110_0_0" index="0" speed="25.00" length="20.80" shape="310.40,-495.20 289.60,-495.20"/>
        <lane id=":gneJ110_0_1" index="1" speed="25.00" length="20.80" shape="310.40,-498.40 289.60,-498.40"/>
    </edge>
    <edge id=":gneJ110_2" function="internal">
        <lane id=":gneJ110_2_0" index="0" speed="9.26" length="6.96" shape="310.40,-498.40 305.15,-499.15 303.73,-500.00"/>
    </edge>
    <edge id=":gneJ110_3" function="internal">
        <lane id=":gneJ110_3_0" index="0" speed="3.65" length="2.34" shape="310.40,-498.40 309.20,-499.20 308.80,-500.00"/>
    </edge>
    <edge id=":gneJ110_11" function="internal">
        <lane id=":gneJ110_11_0" index="0" speed="9.26" length="12.40" shape="303.73,-500.00 301.40,-501.40 299.15,-505.15 298.40,-510.40"/>
    </edge>
    <edge id=":gneJ110_12" function="internal">
        <lane id=":gneJ110_12_0" index="0" speed="3.65" length="2.34" shape="308.80,-500.00 309.20,-500.80 310.40,-501.60"/>
    </edge>
    <edge id=":gneJ110_4" function="internal">
        <lane id=":gneJ110_4_0" index="0" speed="6.51" length="9.03" shape="304.80,-510.40 305.15,-507.95 306.20,-506.20 307.95,-505.15 310.40,-504.80"/>
    </edge>
    <edge id=":gneJ110_5" function="internal">
        <lane id=":gneJ110_5_0" index="0" speed="9.26" length="19.35" shape="301.60,-510.40 300.85,-505.15 298.60,-501.40 294.85,-499.15 289.60,-498.40"/>
    </edge>
    <edge id=":gneJ110_6" function="internal">
        <lane id=":gneJ110_6_0" index="0" speed="3.65" length="4.67" shape="301.60,-510.40 300.80,-509.20 300.00,-508.80 299.20,-509.20 298.40,-510.40"/>
    </edge>
    <edge id=":gneJ110_7" function="internal">
        <lane id=":gneJ110_7_0" index="0" speed="6.51" length="9.03" shape="289.60,-504.80 292.05,-505.15 293.80,-506.20 294.85,-507.95 295.20,-510.40"/>
    </edge>
    <edge id=":gneJ110_8" function="internal">
        <lane id=":gneJ110_8_0" index="0" speed="25.00" length="20.80" shape="289.60,-504.80 310.40,-504.80"/>
        <lane id=":gneJ110_8_1" index="1" speed="25.00" length="20.80" shape="289.60,-501.60 310.40,-501.60"/>
    </edge>
    <edge id=":gneJ110_10" function="internal">
        <lane id=":gneJ110_10_0" index="0" speed="3.65" length="2.34" shape="289.60,-501.60 290.80,-500.80 291.20,-500.00"/>
    </edge>
    <edge id=":gneJ110_13" function="internal">
        <lane id=":gneJ110_13_0" index="0" speed="3.65" length="2.34" shape="291.20,-500.00 290.80,-499.20 289.60,-498.40"/>
    </edge>
    <edge id=":gneJ111_0" function="internal">
        <lane id=":gneJ111_0_0" index="0" speed="18.77" length="33.11" shape="510.36,-482.85 503.87,-488.25 496.73,-492.11 488.96,-494.43 480.55,-495.20"/>
    </edge>
    <edge id=":gneJ111_1" function="internal">
        <lane id=":gneJ111_1_0" index="0" speed="25.00" length="38.90" shape="510.36,-482.85 482.85,-510.36"/>
        <lane id=":gneJ111_1_1" index="1" speed="25.00" length="38.90" shape="512.62,-485.11 485.11,-512.62"/>
    </edge>
    <edge id=":gneJ111_3" function="internal">
        <lane id=":gneJ111_3_0" index="0" speed="20.13" length="12.22" shape="512.62,-485.11 506.40,-492.59 505.22,-494.78"/>
    </edge>
    <edge id=":gneJ111_4" function="internal">
        <lane id=":gneJ111_4_0" index="0" speed="8.14" length="6.43" shape="512.62,-485.11 509.34,-490.65"/>
    </edge>
    <edge id=":gneJ111_27" function="internal">
        <lane id=":gneJ111_27_0" index="0" speed="20.13" length="25.92" shape="505.22,-494.78 501.96,-500.81 499.29,-509.76 498.40,-519.45"/>
    </edge>
    <edge id=":gneJ111_28" function="internal">
        <lane id=":gneJ111_28_0" index="0" speed="8.14" length="17.13" shape="509.34,-490.65 509.69,-495.99 513.22,-500.01 519.45,-501.60"/>
    </edge>
    <edge id=":gneJ111_5" function="internal">
        <lane id=":gneJ111_5_0" index="0" speed="5.47" length="9.74" shape="519.45,-495.20 516.36,-494.85 514.94,-493.81 515.21,-492.07 517.15,-489.64"/>
    </edge>
    <edge id=":gneJ111_6" function="internal">
        <lane id=":gneJ111_6_0" index="0" speed="25.00" length="38.90" shape="519.45,-495.20 480.55,-495.20"/>
        <lane id=":gneJ111_6_1" index="1" speed="25.00" length="38.90" shape="519.45,-498.40 480.55,-498.40"/>
    </edge>
    <edge id=":gneJ111_8" function="internal">
        <lane id=":gneJ111_8_0" index="0" speed="20.03" length="37.76" shape="519.45,-498.40 510.86,-499.63 501.18,-502.86 492.06,-507.42 485.11,-512.62"/>
    </edge>
    <edge id=":gneJ111_9" function="internal">
        <lane id=":gneJ111_9_0" index="0" speed="12.13" length="33.95" shape="519.45,-498.40 510.24,-499.72 503.66,-503.66 499.72,-510.24 498.40,-519.45"/>
    </edge>
    <edge id=":gneJ111_10" function="internal">
        <lane id=":gneJ111_10_0" index="0" speed="3.65" length="4.67" shape="519.45,-498.40 518.25,-499.20 517.85,-500.00 518.25,-500.80 519.45,-501.60"/>
    </edge>
    <edge id=":gneJ111_11" function="internal">