<?xml version="1.0" encoding="UTF-8"?>

<!-- generated on 06/10/19 14:38:01 by Eclipse SUMO netgenerate Version v1_0_1+0383-8ba62d898b
This data file and the accompanying materials
are made available under the terms of the Eclipse Public License v2.0
which accompanies this distribution, and is available at
http://www.eclipse.org/legal/epl-v20.html
SPDX-License-Identifier: EPL-2.0
<configuration xmlns:xsi="http://www.w3.org/2001/XMLSchema-instance" xsi:noNamespaceSchemaLocation="http://sumo.dlr.de/xsd/netgenerateConfiguration.xsd">

    <random_network>
        <rand value="true"/>
        <rand.iterations value="200"/>
        <rand.max-distance value="100"/>
        <rand.min-distance value="30"/>
    </random_network>

    <output>
        <write-license value="true"/>
    </output>

    <report>
        <verbose value="true"/>
    </report>

</configuration>
-->

<net version="1.0" junctionCornerDetail="5" limitTurnSpeed="5.50" xmlns:xsi="http://www.w3.org/2001/XMLSchema-instance" xsi:noNamespaceSchemaLocation="http://sumo.dlr.de/xsd/net_file.xsd">

    <location netOffset="861.62,416.12" convBoundary="0.00,0.00,1606.72,982.51" origBoundary="-861.62,-416.12,745.10,566.39" projParameter="!"/>

    <edge id=":1_0" function="internal">
        <lane id=":1_0_0" index="0" speed="5.98" length="9.08" shape="860.15,424.42 859.74,421.85 858.61,420.27 856.76,419.69 854.19,420.10"/>
    </edge>
    <edge id=":1_1" function="internal">
        <lane id=":1_1_0" index="0" speed="13.89" length="14.86" shape="860.15,424.42 860.01,420.69 859.70,417.00 859.18,413.34 858.43,409.69"/>
    </edge>
    <edge id=":1_2" function="internal">
        <lane id=":1_2_0" index="0" speed="8.09" length="6.00" shape="860.15,424.42 860.65,420.08 861.43,418.64"/>
    </edge>
    <edge id=":1_3" function="internal">
        <lane id=":1_3_0" index="0" speed="3.65" length="2.34" shape="860.15,424.42 860.93,423.21 861.72,422.79"/>
    </edge>
    <edge id=":1_16" function="internal">
        <lane id=":1_16_0" index="0" speed="8.09" length="9.12" shape="861.43,418.64 862.30,417.03 865.10,415.27 869.05,414.80"/>
    </edge>
    <edge id=":1_17" function="internal">
        <lane id=":1_17_0" index="0" speed="3.65" length="2.34" shape="861.72,422.79 862.53,423.18 863.35,424.37"/>
    </edge>
    <edge id=":1_4" function="internal">
        <lane id=":1_4_0" index="0" speed="6.62" length="9.76" shape="868.93,418.00 866.45,418.32 864.69,419.48 863.66,421.50 863.35,424.37"/>
    </edge>
    <edge id=":1_5" function="internal">
        <lane id=":1_5_0" index="0" speed="13.89" length="14.95" shape="868.93,418.00 865.19,418.04 861.48,418.42 857.81,419.12 854.19,420.10"/>
    </edge>
    <edge id=":1_6" function="internal">
        <lane id=":1_6_0" index="0" speed="9.03" length="14.51" shape="868.93,418.00 865.06,417.36 862.01,415.76 859.81,413.20 858.43,409.69"/>
    </edge>
    <edge id=":1_7" function="internal">
        <lane id=":1_7_0" index="0" speed="3.65" length="4.67" shape="868.93,418.00 867.76,417.15 867.39,416.34 867.82,415.56 869.05,414.80"/>
    </edge>
    <edge id=":1_8" function="internal">
        <lane id=":1_8_0" index="0" speed="7.70" length="10.32" shape="861.54,408.94 862.52,411.42 864.09,413.22 866.27,414.35 869.05,414.80"/>
    </edge>
    <edge id=":1_9" function="internal">
        <lane id=":1_9_0" index="0" speed="13.89" length="15.56" shape="861.54,408.94 862.31,412.70 862.85,416.60 863.20,420.53 863.35,424.37"/>
    </edge>
    <edge id=":1_10" function="internal">
        <lane id=":1_10_0" index="0" speed="8.41" length="6.16" shape="861.54,408.94 861.83,412.74 861.02,414.95"/>
    </edge>
    <edge id=":1_11" function="internal">
        <lane id=":1_11_0" index="0" speed="3.65" length="2.34" shape="861.54,408.94 861.04,410.30 860.36,410.87"/>
    </edge>
    <edge id=":1_18" function="internal">
        <lane id=":1_18_0" index="0" speed="8.41" length="8.84" shape="861.02,414.95 860.70,415.86 858.15,418.32 854.19,420.10"/>
    </edge>
    <edge id=":1_19" function="internal">
        <lane id=":1_19_0" index="0" speed="3.65" length="2.34" shape="860.36,410.87 859.49,410.67 858.43,409.69"/>
    </edge>
    <edge id=":1_12" function="internal">
        <lane id=":1_12_0" index="0" speed="7.00" length="10.09" shape="853.24,417.04 855.99,415.83 857.78,414.20 858.59,412.15 858.43,409.69"/>
    </edge>
    <edge id=":1_13" function="internal">
        <lane id=":1_13_0" index="0" speed="13.89" length="16.03" shape="853.24,417.04 857.03,416.04 861.07,415.30 865.15,414.86 869.05,414.80"/>
    </edge>
    <edge id=":1_14" function="internal">
        <lane id=":1_14_0" index="0" speed="7.59" length="15.41" shape="853.24,417.04 857.60,416.35 860.74,417.33 862.66,420.01 863.35,424.37"/>
    </edge>
    <edge id=":1_15" function="internal">
        <lane id=":1_15_0" index="0" speed="3.65" length="4.67" shape="853.24,417.04 854.63,417.45 855.25,418.10 855.10,418.98 854.19,420.10"/>
    </edge>
    <edge id=":10_0" function="internal">
        <lane id=":10_0_0" index="0" speed="9.32" length="13.60" shape="809.20,434.06 806.56,435.43 804.54,437.69 803.14,440.85 802.37,444.91"/>
    </edge>
    <edge id=":10_1" function="internal">
        <lane id=":10_1_0" index="0" speed="13.89" length="16.98" shape="809.20,434.06 805.38,435.43 801.31,437.17 797.32,439.09 793.72,440.99"/>
    </edge>
    <edge id=":10_2" function="internal">
        <lane id=":10_2_0" index="0" speed="7.97" length="5.37" shape="809.20,434.06 805.34,434.68 803.93,434.33"/>
    </edge>
    <edge id=":10_3" function="internal">
        <lane id=":10_3_0" index="0" speed="3.65" length="2.34" shape="809.20,434.06 807.82,433.65 807.20,433.01"/>
    </edge>
    <edge id=":10_16" function="internal">
        <lane id=":10_16_0" index="0" speed="7.97" length="8.89" shape="803.93,434.33 802.22,433.91 799.85,431.74 798.23,428.17"/>
    </edge>
    <edge id=":10_17" function="internal">
        <lane id=":10_17_0" index="0" speed="3.65" length="2.34" shape="807.20,433.01 807.34,432.13 808.25,431.01"/>
    </edge>
    <edge id=":10_4" function="internal">
        <lane id=":10_4_0" index="0" speed="6.47" length="9.03" shape="801.30,427.27 802.33,429.53 803.83,430.91 805.80,431.40 808.25,431.01"/>
    </edge>
    <edge id=":10_5" function="internal">
        <lane id=":10_5_0" index="0" speed="13.89" length="17.75" shape="801.30,427.27 802.13,431.36 802.55,436.03 802.61,440.73 802.37,444.91"/>
    </edge>
    <edge id=":10_6" function="internal">
        <lane id=":10_6_0" index="0" speed="9.52" length="17.06" shape="801.30,427.27 801.72,431.20 800.60,434.80 797.94,438.06 793.72,440.99"/>
    </edge>
    <edge id=":10_7" function="internal">
        <lane id=":10_7_0" index="0" speed="3.65" length="4.67" shape="801.30,427.27 800.87,428.65 800.21,429.26 799.33,429.10 798.23,428.17"/>
    </edge>
    <edge id=":10_8" function="internal">
        <lane id=":10_8_0" index="0" speed="8.28" length="12.71" shape="792.17,438.19 795.45,435.96 797.55,433.54 798.48,430.95 798.23,428.17"/>
    </edge>
    <edge id=":10_9" function="internal">
        <lane id=":10_9_0" index="0" speed="13.89" length="17.63" shape="792.17,438.19 795.86,436.25 800.06,434.24 804.34,432.41 808.25,431.01"/>
    </edge>
    <edge id=":10_10" function="internal">
        <lane id=":10_10_0" index="0" speed="7.38" length="7.28" shape="792.17,438.19 797.13,436.21 799.06,436.48"/>
    </edge>
    <edge id=":10_11" function="internal">
        <lane id=":10_11_0" index="0" speed="3.65" length="2.34" shape="792.17,438.19 793.61,438.31 794.35,438.81"/>
    </edge>
    <edge id=":10_18" function="internal">
        <lane id=":10_18_0" index="0" speed="7.38" length="10.17" shape="799.06,436.48 800.49,436.68 802.23,439.58 802.37,444.91"/>
    </edge>
    <edge id=":10_19" function="internal">
        <lane id=":10_19_0" index="0" speed="3.65" length="2.34" shape="794.35,438.81 794.39,439.71 793.72,440.99"/>
    </edge>
    <edge id=":10_12" function="internal">
        <lane id=":10_12_0" index="0" speed="5.59" length="9.35" shape="799.19,444.59 799.11,441.73 798.18,440.18 796.38,439.93 793.72,440.99"/>
    </edge>
    <edge id=":10_13" function="internal">
        <lane id=":10_13_0" index="0" speed="13.89" length="16.53" shape="799.19,444.59 799.45,440.60 799.42,436.32 799.04,432.06 798.23,428.17"/>
    </edge>
    <edge id=":10_14" function="internal">
        <lane id=":10_14_0" index="0" speed="10.47" length="17.35" shape="799.19,444.59 800.18,439.57 802.02,435.63 804.71,432.78 808.25,431.01"/>
    </edge>
    <edge id=":10_15" function="internal">
        <lane id=":10_15_0" index="0" speed="3.65" length="4.67" shape="799.19,444.59 800.10,443.48 800.94,443.16 801.69,443.64 802.37,444.91"/>
    </edge>
    <edge id=":105_0" function="internal">
        <lane id=":105_0_0" index="0" speed="13.89" length="19.75" shape="1049.84,484.49 1036.57,499.12"/>
    </edge>
    <edge id=":105_1" function="internal">
        <lane id=":105_1_0" index="0" speed="13.89" length="7.36" shape="1049.84,484.49 1046.23,487.51 1043.86,488.71"/>
    </edge>
    <edge id=":105_2" function="internal">
        <lane id=":105_2_0" index="0" speed="7.49" length="6.07" shape="1049.84,484.49 1046.16,487.41 1044.81,487.66"/>
    </edge>
    <edge id=":105_3" function="internal">
        <lane id=":105_3_0" index="0" speed="3.65" length="2.34" shape="1049.84,484.49 1048.44,484.81 1047.58,484.55"/>
    </edge>
    <edge id=":105_16" function="internal">
        <lane id=":105_16_0" index="0" speed="13.89" length="12.67" shape="1043.86,488.71 1041.99,489.65 1037.11,490.92 1031.59,491.33"/>
    </edge>
    <edge id=":105_17" function="internal">
        <lane id=":105_17_0" index="0" speed="7.49" length="10.00" shape="1044.81,487.66 1042.90,488.01 1040.04,486.29 1037.60,482.25"/>
    </edge>
    <edge id=":105_18" function="internal">
        <lane id=":105_18_0" index="0" speed="3.65" length="2.34" shape="1047.58,484.55 1047.28,483.70 1047.53,482.28"/>
    </edge>
    <edge id=":105_4" function="internal">
        <lane id=":105_4_0" index="0" speed="5.82" length="9.18" shape="1040.54,480.99 1041.93,483.30 1043.56,484.28 1045.43,483.94 1047.53,482.28"/>
    </edge>
    <edge id=":105_5" function="internal">
        <lane id=":105_5_0" index="0" speed="11.39" length="19.64" shape="1040.54,480.99 1041.76,485.53 1041.50,490.07 1039.77,494.59 1036.57,499.12"/>
    </edge>
    <edge id=":105_6" function="internal">
        <lane id=":105_6_0" index="0" speed="7.79" length="17.62" shape="1040.54,480.99 1041.66,485.54 1040.54,488.78 1037.18,490.71 1031.59,491.33"/>
    </edge>
    <edge id=":105_7" function="internal">
        <lane id=":105_7_0" index="0" speed="3.65" length="4.67" shape="1040.54,480.99 1040.28,482.41 1039.70,483.09 1038.81,483.04 1037.60,482.25"/>
    </edge>
    <edge id=":105_8" function="internal">
        <lane id=":105_8_0" index="0" speed="6.21" length="10.71" shape="1031.60,488.13 1035.18,487.78 1037.37,486.68 1038.18,484.84 1037.60,482.25"/>
    </edge>
    <edge id=":105_9" function="internal">
        <lane id=":105_9_0" index="0" speed="13.34" length="17.43" shape="1031.60,488.13 1036.46,487.78 1040.73,486.69 1044.42,484.86 1047.53,482.28"/>
    </edge>
    <edge id=":105_10" function="internal">
        <lane id=":105_10_0" index="0" speed="7.39" length="18.44" shape="1031.60,488.13 1037.34,488.84 1040.09,490.91 1039.83,494.34 1036.57,499.12"/>
    </edge>
    <edge id=":105_11" function="internal">
        <lane id=":105_11_0" index="0" speed="3.65" length="4.67" shape="1031.60,488.13 1032.80,488.93 1033.20,489.74 1032.79,490.53 1031.59,491.33"/>
    </edge>
    <edge id=":105_12" function="internal">
        <lane id=":105_12_0" index="0" speed="5.51" length="9.54" shape="1034.15,497.01 1035.84,494.54 1035.98,492.77 1034.56,491.70 1031.59,491.33"/>
    </edge>
    <edge id=":105_13" function="internal">
        <lane id=":105_13_0" index="0" speed="10.33" length="16.03" shape="1034.15,497.01 1036.83,493.27 1038.30,489.56 1038.55,485.89 1037.60,482.25"/>
    </edge>
    <edge id=":105_14" function="internal">
        <lane id=":105_14_0" index="0" speed="13.89" length="19.89" shape="1034.15,497.01 1047.53,482.28"/>
    </edge>
    <edge id=":105_15" function="internal">
        <lane id=":105_15_0" index="0" speed="3.65" length="2.34" shape="1034.15,497.01 1035.55,496.64 1036.41,496.86"/>
    </edge>
    <edge id=":105_19" function="internal">
        <lane id=":105_19_0" index="0" speed="3.65" length="2.34" shape="1036.41,496.86 1036.75,497.69 1036.57,499.12"/>
    </edge>
    <edge id=":1084_0" function="internal">
        <lane id=":1084_0_0" index="0" speed="6.54" length="11.09" shape="392.43,456.47 390.81,453.12 388.95,451.24 386.84,450.84 384.49,451.90"/>
    </edge>
    <edge id=":1084_1" function="internal">
        <lane id=":1084_1_0" index="0" speed="7.38" length="18.25" shape="392.43,456.47 391.12,450.92 392.11,447.64 395.38,446.63 400.94,447.88"/>
    </edge>
    <edge id=":1084_2" function="internal">
        <lane id=":1084_2_0" index="0" speed="3.65" length="4.67" shape="392.43,456.47 392.77,455.06 393.38,454.41 394.27,454.51 395.43,455.37"/>
    </edge>
    <edge id=":1084_3" function="internal">
        <lane id=":1084_3_0" index="0" speed="5.52" length="9.50" shape="399.86,450.90 396.97,450.24 395.27,450.77 394.75,452.48 395.43,455.37"/>
    </edge>
    <edge id=":1084_4" function="internal">
        <lane id=":1084_4_0" index="0" speed="11.33" length="16.03" shape="399.86,450.90 395.38,449.70 391.32,449.47 387.69,450.21 384.49,451.90"/>
    </edge>
    <edge id=":1084_5" function="internal">
        <lane id=":1084_5_0" index="0" speed="3.65" length="2.18" shape="399.86,450.90 399.00,449.74 398.91,449.01"/>
    </edge>
    <edge id=":1084_9" function="internal">
        <lane id=":1084_9_0" index="0" speed="3.65" length="2.49" shape="398.91,449.01 398.90,448.85 399.54,448.23 400.94,447.88"/>
    </edge>
    <edge id=":1084_6" function="internal">
        <lane id=":1084_6_0" index="0" speed="12.35" length="19.15" shape="382.60,449.32 386.51,447.22 390.86,446.28 395.67,446.50 400.94,447.88"/>
    </edge>
    <edge id=":1084_7" function="internal">
        <lane id=":1084_7_0" index="0" speed="8.03" length="8.26" shape="382.60,449.32 386.55,447.41 390.00,447.78 390.30,448.05"/>
    </edge>
    <edge id=":1084_8" function="internal">
        <lane id=":1084_8_0" index="0" speed="3.65" length="2.56" shape="382.60,449.32 384.05,449.26 384.84,449.67 384.88,449.89"/>
    </edge>
    <edge id=":1084_10" function="internal">
        <lane id=":1084_10_0" index="0" speed="8.03" length="9.09" shape="390.30,448.05 392.96,450.43 395.43,455.37"/>
    </edge>
    <edge id=":1084_11" function="internal">
        <lane id=":1084_11_0" index="0" speed="3.65" length="2.11" shape="384.88,449.89 384.99,450.55 384.49,451.90"/>
    </edge>
    <edge id=":1086_0" function="internal">
        <lane id=":1086_0_0" index="0" speed="13.89" length="17.59" shape="510.75,589.70 509.09,593.47 506.56,597.35 503.59,600.95 500.62,603.88"/>
    </edge>
    <edge id=":1086_1" function="internal">
        <lane id=":1086_1_0" index="0" speed="8.75" length="7.06" shape="510.75,589.70 508.97,593.12 506.36,594.98"/>
    </edge>
    <edge id=":1086_2" function="internal">
        <lane id=":1086_2_0" index="0" speed="3.65" length="2.52" shape="510.75,589.70 509.64,590.62 508.76,590.78 508.63,590.65"/>
    </edge>
    <edge id=":1086_9" function="internal">
        <lane id=":1086_9_0" index="0" speed="8.75" length="9.54" shape="506.36,594.98 506.08,595.17 502.09,595.83 496.99,595.11"/>
    </edge>
    <edge id=":1086_10" function="internal">
        <lane id=":1086_10_0" index="0" speed="3.65" length="2.16" shape="508.63,590.65 508.10,590.16 507.68,588.79"/>
    </edge>
    <edge id=":1086_3" function="internal">
        <lane id=":1086_3_0" index="0" speed="7.41" length="11.63" shape="497.76,592.00 501.51,592.58 504.41,592.24 506.47,590.98 507.68,588.79"/>
    </edge>
    <edge id=":1086_4" function="internal">
        <lane id=":1086_4_0" index="0" speed="7.38" length="17.46" shape="497.76,592.00 502.74,593.95 504.88,596.57 504.17,599.88 500.62,603.88"/>
    </edge>
    <edge id=":1086_5" function="internal">
        <lane id=":1086_5_0" index="0" speed="3.65" length="4.67" shape="497.76,592.00 498.73,593.07 498.93,593.94 498.34,594.62 496.99,595.11"/>
    </edge>
    <edge id=":1086_6" function="internal">
        <lane id=":1086_6_0" index="0" speed="5.59" length="9.35" shape="498.52,601.47 500.42,599.33 500.80,597.55 499.65,596.15 496.99,595.11"/>
    </edge>
    <edge id=":1086_7" function="internal">
        <lane id=":1086_7_0" index="0" speed="13.89" length="15.82" shape="498.52,601.47 501.34,598.77 503.98,595.69 506.18,592.33 507.68,588.79"/>
    </edge>
    <edge id=":1086_8" function="internal">
        <lane id=":1086_8_0" index="0" speed="3.65" length="2.23" shape="498.52,601.47 499.95,601.28 500.67,601.58"/>
    </edge>
    <edge id=":1086_11" function="internal">
        <lane id=":1086_11_0" index="0" speed="3.65" length="2.45" shape="500.67,601.58 500.77,601.62 501.00,602.49 500.62,603.88"/>
    </edge>
    <edge id=":1090_0" function="internal">
        <lane id=":1090_0_0" index="0" speed="7.59" length="12.37" shape="373.44,572.06 372.23,568.89 370.30,566.84 367.65,565.91 364.29,566.09"/>
    </edge>
    <edge id=":1090_1" function="internal">
        <lane id=":1090_1_0" index="0" speed="13.89" length="17.33" shape="373.44,572.06 372.25,568.12 370.50,563.91 368.39,559.88 366.12,556.45"/>
    </edge>
    <edge id=":1090_2" function="internal">
        <lane id=":1090_2_0" index="0" speed="11.41" length="5.74" shape="373.44,572.06 372.99,567.26 373.18,566.36"/>
    </edge>
    <edge id=":1090_3" function="internal">
        <lane id=":1090_3_0" index="0" speed="7.61" length="5.42" shape="373.44,572.06 373.07,567.22 373.33,566.72"/>
    </edge>
    <edge id=":1090_4" function="internal">
        <lane id=":1090_4_0" index="0" speed="3.65" length="2.20" shape="373.44,572.06 373.95,570.71 374.54,570.22"/>
    </edge>
    <edge id=":1090_25" function="internal">
        <lane id=":1090_25_0" index="0" speed="11.41" length="13.67" shape="373.18,566.36 373.94,562.80 376.27,558.69 379.99,554.91"/>
    </edge>
    <edge id=":1090_26" function="internal">
        <lane id=":1090_26_0" index="0" speed="7.61" length="11.86" shape="373.33,566.72 374.62,564.21 378.07,563.03 383.43,563.67"/>
    </edge>
    <edge id=":1090_27" function="internal">
        <lane id=":1090_27_0" index="0" speed="3.65" length="2.47" shape="374.54,570.22 374.64,570.14 375.51,570.35 376.56,571.34"/>
    </edge>
    <edge id=":1090_5" function="internal">
        <lane id=":1090_5_0" index="0" speed="5.96" length="10.06" shape="382.67,566.77 379.44,566.36 377.35,566.98 376.39,568.64 376.56,571.34"/>
    </edge>
    <edge id=":1090_6" function="internal">
        <lane id=":1090_6_0" index="0" speed="13.89" length="18.48" shape="382.67,566.77 378.44,566.03 373.50,565.62 368.55,565.61 364.29,566.09"/>
    </edge>
    <edge id=":1090_7" function="internal">
        <lane id=":1090_7_0" index="0" speed="13.89" length="19.72" shape="382.67,566.77 378.46,565.22 373.71,562.65 369.30,559.57 366.12,556.45"/>
    </edge>
    <edge id=":1090_8" function="internal">
        <lane id=":1090_8_0" index="0" speed="7.38" length="17.77" shape="382.67,566.77 377.54,564.81 375.39,562.18 376.20,558.88 379.99,554.91"/>
    </edge>
    <edge id=":1090_9" function="internal">
        <lane id=":1090_9_0" index="0" speed="3.65" length="4.67" shape="382.67,566.77 381.69,565.71 381.49,564.84 382.07,564.16 383.43,563.67"/>
    </edge>
    <edge id=":1090_10" function="internal">
        <lane id=":1090_10_0" index="0" speed="5.56" length="9.41" shape="382.01,557.39 380.01,559.49 379.58,561.24 380.72,562.63 383.43,563.67"/>
    </edge>
    <edge id=":1090_11" function="internal">
        <lane id=":1090_11_0" index="0" speed="10.34" length="15.83" shape="382.01,557.39 378.94,560.49 377.00,563.86 376.21,567.47 376.56,571.34"/>
    </edge>
    <edge id=":1090_12" function="internal">
        <lane id=":1090_12_0" index="0" speed="13.89" length="19.85" shape="382.01,557.39 378.30,559.94 373.54,562.56 368.58,564.76 364.29,566.09"/>
    </edge>
    <edge id=":1090_13" function="internal">
        <lane id=":1090_13_0" index="0" speed="8.90" length="18.27" shape="382.01,557.39 377.52,560.19 373.37,560.97 369.57,559.72 366.12,556.45"/>
    </edge>
    <edge id=":1090_14" function="internal">
        <lane id=":1090_14_0" index="0" speed="3.65" length="4.67" shape="382.01,557.39 380.58,557.53 379.76,557.16 379.56,556.29 379.99,554.91"/>
    </edge>
    <edge id=":1090_15" function="internal">
        <lane id=":1090_15_0" index="0" speed="7.59" length="12.99" shape="368.66,554.51 371.08,556.76 373.77,557.58 376.74,556.96 379.99,554.91"/>
    </edge>
    <edge id=":1090_16" function="internal">
        <lane id=":1090_16_0" index="0" speed="13.89" length="17.61" shape="368.66,554.51 371.57,557.45 375.36,560.13 379.50,562.29 383.43,563.67"/>
    </edge>
    <edge id=":1090_17" function="internal">
        <lane id=":1090_17_0" index="0" speed="13.89" length="18.68" shape="368.66,554.51 371.02,558.13 373.33,562.59 375.28,567.21 376.56,571.34"/>
    </edge>
    <edge id=":1090_18" function="internal">
        <lane id=":1090_18_0" index="0" speed="7.44" length="7.77" shape="368.66,554.51 371.06,558.72 371.12,561.64"/>
    </edge>
    <edge id=":1090_19" function="internal">
        <lane id=":1090_19_0" index="0" speed="3.65" length="2.45" shape="368.66,554.51 368.76,555.95 368.36,556.75 368.25,556.77"/>
    </edge>
    <edge id=":1090_28" function="internal">
        <lane id=":1090_28_0" index="0" speed="7.44" length="8.59" shape="371.12,561.64 371.13,562.05 368.87,564.51 364.29,566.09"/>
    </edge>
    <edge id=":1090_29" function="internal">
        <lane id=":1090_29_0" index="0" speed="3.65" length="2.22" shape="368.25,556.77 367.49,556.92 366.12,556.45"/>
    </edge>
    <edge id=":1090_20" function="internal">
        <lane id=":1090_20_0" index="0" speed="5.74" length="9.18" shape="363.67,562.95 366.24,562.06 367.50,560.68 367.46,558.81 366.12,556.45"/>
    </edge>
    <edge id=":1090_21" function="internal">
        <lane id=":1090_21_0" index="0" speed="13.89" length="18.31" shape="363.67,562.95 367.74,561.73 372.21,559.75 376.49,557.36 379.99,554.91"/>
    </edge>
    <edge id=":1090_22" function="internal">
        <lane id=":1090_22_0" index="0" speed="13.89" length="19.87" shape="363.67,562.95 368.14,562.48 373.57,562.49 378.98,562.91 383.43,563.67"/>
    </edge>
    <edge id=":1090_23" function="internal">
        <lane id=":1090_23_0" index="0" speed="8.91" length="17.43" shape="363.67,562.95 368.41,562.69 372.13,564.00 374.85,566.89 376.56,571.34"/>
    </edge>
    <edge id=":1090_24" function="internal">
        <lane id=":1090_24_0" index="0" speed="3.65" length="4.67" shape="363.67,562.95 365.00,563.50 365.55,564.21 365.31,565.07 364.29,566.09"/>
    </edge>
    <edge id=":1114_0" function="internal">
        <lane id=":1114_0_0" index="0" speed="5.56" length="9.55" shape="534.49,530.29 532.49,528.06 530.76,527.46 529.31,528.51 528.13,531.19"/>
    </edge>
    <edge id=":1114_1" function="internal">
        <lane id=":1114_1_0" index="0" speed="7.38" length="18.19" shape="534.49,530.29 531.82,525.29 531.93,521.87 534.81,520.03 540.48,519.78"/>
    </edge>
    <edge id=":1114_2" function="internal">
        <lane id=":1114_2_0" index="0" speed="3.65" length="4.67" shape="534.49,530.29 534.46,528.85 534.88,528.06 535.77,527.93 537.11,528.46"/>
    </edge>
    <edge id=":1114_3" function="internal">
        <lane id=":1114_3_0" index="0" speed="5.53" length="9.49" shape="540.24,522.97 537.28,523.10 535.77,524.06 535.72,525.84 537.11,528.46"/>
    </edge>
    <edge id=":1114_4" function="internal">
        <lane id=":1114_4_0" index="0" speed="9.21" length="16.02" shape="540.24,522.97 535.94,523.21 532.48,524.66 529.88,527.32 528.13,531.19"/>
    </edge>
    <edge id=":1114_5" function="internal">
        <lane id=":1114_5_0" index="0" speed="3.65" length="2.10" shape="540.24,522.97 539.10,522.08 538.86,521.48"/>
    </edge>
    <edge id=":1114_9" function="internal">
        <lane id=":1114_9_0" index="0" speed="3.65" length="2.58" shape="538.86,521.48 538.76,521.25 539.22,520.49 540.48,519.78"/>
    </edge>
    <edge id=":1114_6" function="internal">
        <lane id=":1114_6_0" index="0" speed="10.33" length="20.42" shape="525.06,530.28 527.30,525.34 530.61,521.94 535.01,520.09 540.48,519.78"/>
    </edge>
    <edge id=":1114_7" function="internal">
        <lane id=":1114_7_0" index="0" speed="7.40" length="10.33" shape="525.06,530.28 527.30,525.16 530.06,523.14 531.32,523.57"/>
    </edge>
    <edge id=":1114_8" function="internal">
        <lane id=":1114_8_0" index="0" speed="3.65" length="2.55" shape="525.06,530.28 526.17,529.36 527.05,529.20 527.21,529.35"/>
    </edge>
    <edge id=":1114_10" function="internal">
        <lane id=":1114_10_0" index="0" speed="7.40" length="7.78" shape="531.32,523.57 533.33,524.24 537.11,528.46"/>
    </edge>
    <edge id=":1114_11" function="internal">
        <lane id=":1114_11_0" index="0" speed="3.65" length="2.12" shape="527.21,529.35 527.70,529.81 528.13,531.19"/>
    </edge>
    <edge id=":1116_0" function="internal">
        <lane id=":1116_0_0" index="0" speed="13.89" length="14.54" shape="481.12,630.56 477.73,629.12 474.39,627.79 471.01,626.59 467.49,625.53"/>
    </edge>
    <edge id=":1116_1" function="internal">
        <lane id=":1116_1_0" index="0" speed="7.45" length="6.25" shape="481.12,630.56 477.00,628.06 476.28,626.82"/>
    </edge>
    <edge id=":1116_2" function="internal">
        <lane id=":1116_2_0" index="0" speed="3.65" length="2.34" shape="481.12,630.56 480.33,629.34 480.28,628.45"/>
    </edge>
    <edge id=":1116_9" function="internal">
        <lane id=":1116_9_0" index="0" speed="7.45" length="10.04" shape="476.28,626.82 475.31,625.19 476.05,621.94 479.21,618.32"/>
    </edge>
    <edge id=":1116_10" function="internal">
        <lane id=":1116_10_0" index="0" speed="3.65" length="2.34" shape="480.28,628.45 480.97,627.88 482.39,627.62"/>
    </edge>
    <edge id=":1116_3" function="internal">
        <lane id=":1116_3_0" index="0" speed="5.76" length="9.17" shape="481.31,620.73 479.53,622.77 479.12,624.60 480.07,626.21 482.39,627.62"/>
    </edge>
    <edge id=":1116_4" function="internal">
        <lane id=":1116_4_0" index="0" speed="10.97" length="15.22" shape="481.31,620.73 477.64,623.47 474.12,625.19 470.73,625.87 467.49,625.53"/>
    </edge>
    <edge id=":1116_5" function="internal">
        <lane id=":1116_5_0" index="0" speed="3.65" length="4.67" shape="481.31,620.73 479.88,620.91 479.06,620.57 478.83,619.71 479.21,618.32"/>
    </edge>
    <edge id=":1116_6" function="internal">
        <lane id=":1116_6_0" index="0" speed="9.82" length="12.08" shape="468.33,622.44 470.77,622.66 473.40,622.05 476.21,620.60 479.21,618.32"/>
    </edge>
    <edge id=":1116_7" function="internal">
        <lane id=":1116_7_0" index="0" speed="13.89" length="14.99" shape="468.33,622.44 471.92,623.52 475.45,624.78 478.93,626.16 482.39,627.62"/>
    </edge>
    <edge id=":1116_8" function="internal">
        <lane id=":1116_8_0" index="0" speed="3.65" length="2.34" shape="468.33,622.44 469.28,623.53 469.46,624.40"/>
    </edge>
    <edge id=":1116_11" function="internal">
        <lane id=":1116_11_0" index="0" speed="3.65" length="2.34" shape="469.46,624.40 468.86,625.07 467.49,625.53"/>
    </edge>
    <edge id=":1118_0" function="internal">
        <lane id=":1118_0_0" index="0" speed="9.01" length="11.41" shape="343.39,570.24 341.12,571.12 339.19,572.78 337.58,575.24 336.30,578.49"/>
    </edge>
    <edge id=":1118_1" function="internal">
        <lane id=":1118_1_0" index="0" speed="13.89" length="17.53" shape="343.39,570.24 339.30,570.89 334.71,571.40 330.11,571.78 325.97,572.04"/>
    </edge>
    <edge id=":1118_2" function="internal">
        <lane id=":1118_2_0" index="0" speed="12.00" length="6.07" shape="343.39,570.24 339.94,570.29 337.44,569.50"/>
    </edge>
    <edge id=":1118_3" function="internal">
        <lane id=":1118_3_0" index="0" speed="3.65" length="2.34" shape="343.39,570.24 342.06,569.69 341.51,568.98"/>
    </edge>
    <edge id=":1118_16" function="internal">
        <lane id=":1118_16_0" index="0" speed="12.00" length="11.57" shape="337.44,569.50 336.21,569.11 332.20,566.72 327.90,563.11"/>
    </edge>
    <edge id=":1118_17" function="internal">
        <lane id=":1118_17_0" index="0" speed="3.65" length="2.34" shape="341.51,568.98 341.74,568.12 342.77,567.10"/>
    </edge>
    <edge id=":1118_4" function="internal">
        <lane id=":1118_4_0" index="0" speed="10.95" length="14.60" shape="330.11,560.80 333.78,563.92 337.11,566.02 340.10,567.08 342.77,567.10"/>
    </edge>
    <edge id=":1118_5" function="internal">
        <lane id=":1118_5_0" index="0" speed="11.54" length="19.78" shape="330.11,560.80 333.87,565.11 336.15,569.49 336.96,573.95 336.30,578.49"/>
    </edge>
    <edge id=":1118_6" function="internal">
        <lane id=":1118_6_0" index="0" speed="7.41" length="18.94" shape="330.11,560.80 333.96,565.41 334.55,568.82 331.89,571.03 325.97,572.04"/>
    </edge>
    <edge id=":1118_7" function="internal">
        <lane id=":1118_7_0" index="0" speed="3.65" length="4.67" shape="330.11,560.80 330.43,562.20 330.16,563.06 329.32,563.36 327.90,563.11"/>
    </edge>
    <edge id=":1118_8" function="internal">
        <lane id=":1118_8_0" index="0" speed="5.49" length="9.65" shape="325.79,568.85 328.81,568.33 330.17,567.20 329.86,565.46 327.90,563.11"/>
    </edge>
    <edge id=":1118_9" function="internal">