<?xml version="1.0" encoding="UTF-8"?>

<!-- generated on 06/12/19 14:31:45 by Eclipse SUMO netedit Version v1_0_1+0383-8ba62d898b
<configuration xmlns:xsi="http://www.w3.org/2001/XMLSchema-instance" xsi:noNamespaceSchemaLocation="http://sumo.dlr.de/xsd/netconvertConfiguration.xsd">

    <input>
        <sumo-net-file value="Haines_City.net.xml"/>
    </input>

    <output>
        <output-file value="Haines_City.net.xml"/>
        <plain-output-prefix value="C:\sumo-windows10\projects\Haines_City\data\Haines_City"/>
    </output>

    <processing>
        <offset.disable-normalization value="true"/>
        <lefthand value="false"/>
    </processing>

    <junctions>
        <no-turnarounds value="true"/>
        <junctions.corner-detail value="0"/>
        <junctions.limit-turn-speed value="-1"/>
        <rectangular-lane-cut value="false"/>
    </junctions>

    <pedestrian>
        <walkingareas value="false"/>
    </pedestrian>

</configuration>
-->

<tlLogics version="1.0" xmlns:xsi="http://www.w3.org/2001/XMLSchema-instance" xsi:noNamespaceSchemaLocation="http://sumo.dlr.de/xsd/tllogic_file.xsd">
    <tlLogic id="100062103" type="static" programID="0" offset="0">
        <phase duration="31" state="rrrrGGGggrrrrGGGgg"/>
        <phase duration="4"  state="rrrryyyggrrrryyygg"/>
        <phase duration="6"  state="rrrrrrrGGrrrrrrrGG"/>
        <phase duration="4"  state="rrrrrrryyrrrrrrryy"/>
        <phase duration="31" state="GGggrrrrrGGggrrrrr"/>
        <phase duration="4"  state="yyggrrrrryyggrrrrr"/>
        <phase duration="6"  state="rrGGrrrrrrrGGrrrrr"/>
        <phase duration="4"  state="rryyrrrrrrryyrrrrr"/>
    </tlLogic>
    <tlLogic id="100062128" type="static" programID="0" offset="0">
        <phase duration="25" state="rrrrGGggrrrrGGgg"/>
        <phase duration="7"  state="rrrryyggrrrryygg"/>
        <phase duration="6"  state="rrrrrrGGrrrrrrGG"/>
        <phase duration="7"  state="rrrrrryyrrrrrryy"/>
        <phase duration="25" state="GGggrrrrGGggrrrr"/>
        <phase duration="7"  state="yyggrrrryyggrrrr"/>
        <phase duration="6"  state="rrGGrrrrrrGGrrrr"/>
        <phase duration="7"  state="rryyrrrrrryyrrrr"/>
    </tlLogic>
    <tlLogic id="100062149" type="static" programID="0" offset="0">
        <phase duration="25" state="GgggrrrrrrrrGGGg"/>
        <phase duration="7"  state="ygggrrrrrrrryyyg"/>
        <phase duration="6"  state="rGGGrrrrrrrrrrrG"/>
        <phase duration="7"  state="ryyyrrrrrrrrrrry"/>
        <phase duration="25" state="rrrrGGGgGgggrrrr"/>
        <phase duration="7"  state="rrrryyygygggrrrr"/>
        <phase duration="6"  state="rrrrrrrGrGGGrrrr"/>
        <phase duration="7"  state="rrrrrrryryyyrrrr"/>
    </tlLogic>
    <tlLogic id="100079299" type="static" programID="0" offset="0">
        <phase duration="25" state="rrrrGGggrrrrGGgg"/>
        <phase duration="7"  state="rrrryyggrrrryygg"/>
        <phase duration="6"  state="rrrrrrGGrrrrrrGG"/>
        <phase duration="7"  state="rrrrrryyrrrrrryy"/>
        <phase duration="25" state="GGggrrrrGGggrrrr"/>
        <phase duration="7"  state="yyggrrrryyggrrrr"/>
        <phase duration="6"  state="rrGGrrrrrrGGrrrr"/>
        <phase duration="7"  state="rryyrrrrrryyrrrr"/>
    </tlLogic>
    <tlLogic id="100135129" type="static" programID="0" offset="0">
        <phase duration="21" state="GGggrrrrGGggrrrr"/>
        <phase duration="9"  state="yyggrrrryyggrrrr"/>
        <phase duration="6"  state="rrGGrrrrrrGGrrrr"/>
        <phase duration="9"  state="rryyrrrrrryyrrrr"/>
        <phase duration="21" state="rrrrGGggrrrrGGgg"/>
        <phase duration="9"  state="rrrryyggrrrryygg"/>
        <phase duration="6"  state="rrrrrrGGrrrrrrGG"/>
        <phase duration="9"  state="rrrrrryyrrrrrryy"/>
    </tlLogic>
    <tlLogic id="100210795" type="static" programID="0" offset="0">
        <phase duration="21" state="rrrrGGggrrrrGGgg"/>
        <phase duration="9"  state="rrrryyggrrrryygg"/>
        <phase duration="6"  state="rrrrrrGGrrrrrrGG"/>
        <phase duration="9"  state="rrrrrryyrrrrrryy"/>
        <phase duration="21" state="GGggrrrrGGggrrrr"/>
        <phase duration="9"  state="yyggrrrryyggrrrr"/>
        <phase duration="6"  state="rrGGrrrrrrGGrrrr"/>
        <phase duration="9"  state="rryyrrrrrryyrrrr"/>
    </tlLogic>
    <tlLogic id="100482392" type="static" programID="0" offset="0">
        <phase duration="21" state="GGggrrrrGGggrrrr"/>
        <phase duration="9"  state="yyggrrrryyggrrrr"/>
        <phase duration="6"  state="rrGGrrrrrrGGrrrr"/>
        <phase duration="9"  state="rryyrrrrrryyrrrr"/>
        <phase duration="21" state="rrrrGGggrrrrGGgg"/>
        <phase duration="9"  state="rrrryyggrrrryygg"/>
        <phase duration="6"  state="rrrrrrGGrrrrrrGG"/>
        <phase duration="9"  state="rrrrrryyrrrrrryy"/>
    </tlLogic>
    <tlLogic id="cluster_100112698_100193088" type="static" programID="0" offset="0">
        <phase duration="33" state="GGGgGGggrrr"/>
        <phase duration="6"  state="yyygyyggrrr"/>
        <phase duration="6"  state="rrrGrrGGrrr"/>
        <phase duration="6"  state="rrryrryyrrr"/>
        <phase duration="33" state="GrrrrrrrGGg"/>
        <phase duration="6"  state="yrrrrrrryyy"/>
    </tlLogic>
    <tlLogic id="cluster_100591614_2632388615" type="static" programID="0" offset="0">
        <phase duration="25" state="rrrrrGGgggrrrrrGGGgg"/>
        <phase duration="7"  state="rrrrryygggrrrrryyygg"/>
        <phase duration="6"  state="rrrrrrrGGGrrrrrrrrGG"/>
        <phase duration="7"  state="rrrrrrryyyrrrrrrrryy"/>
        <phase duration="25" state="GGGggrrrrrGGgggrrrrr"/>
        <phase duration="7"  state="yyyggrrrrryygggrrrrr"/>
        <phase duration="6"  state="rrrGGrrrrrrrGGGrrrrr"/>
        <phase duration="7"  state="rrryyrrrrrrryyyrrrrr"/>
    </tlLogic>
    <tlLogic id="cluster_601279532_601279533" type="static" programID="0" offset="0">
        <phase duration="21" state="GGGGggrrrrGGGGggrrrr"/>
        <phase duration="9"  state="yyyyggrrrryyyyggrrrr"/>
        <phase duration="6"  state="rrrrGGrrrrrrrrGGrrrr"/>
        <phase duration="9"  state="rrrryyrrrrrrrryyrrrr"/>
        <phase duration="21" state="rrrrrrGGggrrrrrrGGgg"/>
        <phase duration="9"  state="rrrrrryyggrrrrrryygg"/>
        <phase duration="6"  state="rrrrrrrrGGrrrrrrrrGG"/>
        <phase duration="9"  state="rrrrrrrryyrrrrrrrryy"/>
    </tlLogic>
    <tlLogic id="cluster_601280964_601280968" type="static" programID="0" offset="0">
        <phase duration="21" state="GGGGggrrrrGGGGggrrrr"/>
        <phase duration="9"  state="yyyyggrrrryyyyggrrrr"/>
        <phase duration="6"  state="rrrrGGrrrrrrrrGGrrrr"/>
        <phase duration="9"  state="rrrryyrrrrrrrryyrrrr"/>
        <phase duration="21" state="rrrrrrGGggrrrrrrGGgg"/>
        <phase duration="9"  state="rrrrrryyggrrrrrryygg"/>
        <phase duration="6"  state="rrrrrrrrGGrrrrrrrrGG"/>
        <phase duration="9"  state="rrrrrrrryyrrrrrrrryy"/>
    </tlLogic>
    <tlLogic id="cluster_601280975_601280976" type="static" programID="0" offset="0">
        <phase duration="23" state="GGGGggrrrrGGGGggrrrr"/>
        <phase duration="8"  state="yyyyggrrrryyyyggrrrr"/>
        <phase duration="6"  state="rrrrGGrrrrrrrrGGrrrr"/>
        <phase duration="8"  state="rrrryyrrrrrrrryyrrrr"/>
        <phase duration="23" state="rrrrrrGGggrrrrrrGGgg"/>
        <phase duration="8"  state="rrrrrryyggrrrrrryygg"/>
        <phase duration="6"  state="rrrrrrrrGGrrrrrrrrGG"/>
        <phase duration="8"  state="rrrrrrrryyrrrrrrrryy"/>
    </tlLogic>
    <tlLogic id="cluster_601280982_601280983" type="static" programID="0" offset="0">
        <phase duration="27" state="GGGGggrrrrGGGGggrrrr"/>
        <phase duration="6"  state="yyyyggrrrryyyyggrrrr"/>
        <phase duration="6"  state="rrrrGGrrrrrrrrGGrrrr"/>
        <phase duration="6"  state="rrrryyrrrrrrrryyrrrr"/>
        <phase duration="27" state="rrrrrrGGggrrrrrrGGgg"/>
        <phase duration="6"  state="rrrrrryyggrrrrrryygg"/>
        <phase duration="6"  state="rrrrrrrrGGrrrrrrrrGG"/>
        <phase duration="6"  state="rrrrrrrryyrrrrrrrryy"/>
    </tlLogic>
    <tlLogic id="cluster_601294127_601294274" type="static" programID="0" offset="0">
        <phase duration="23" state="rrrrGGGGggrrrrGGGGgg"/>
        <phase duration="8"  state="rrrryyyyggrrrryyyygg"/>
        <phase duration="6"  state="rrrrrrrrGGrrrrrrrrGG"/>
        <phase duration="8"  state="rrrrrrrryyrrrrrrrryy"/>
        <phase duration="23" state="GGggrrrrrrGGggrrrrrr"/>
        <phase duration="8"  state="yyggrrrrrryyggrrrrrr"/>
        <phase duration="6"  state="rrGGrrrrrrrrGGrrrrrr"/>
        <phase duration="8"  state="rryyrrrrrrrryyrrrrrr"/>
    </tlLogic>
    <tlLogic id="cluster_601295049_601295216" type="static" programID="0" offset="0">
        <phase duration="27" state="GGGGggrrrrGGGGggrrrr"/>
        <phase duration="6"  state="yyyyggrrrryyyyggrrrr"/>
        <phase duration="6"  state="rrrrGGrrrrrrrrGGrrrr"/>
        <phase duration="6"  state="rrrryyrrrrrrrryyrrrr"/>
        <phase duration="27" state="rrrrrrGGggrrrrrrGGgg"/>
        <phase duration="6"  state="rrrrrryyggrrrrrryygg"/>
        <phase duration="6"  state="rrrrrrrrGGrrrrrrrrGG"/>
        <phase duration="6"  state="rrrrrrrryyrrrrrrrryy"/>
    </tlLogic>

    <connection from="-11268890#0" to="-11290787" fromLane="0" toLane="0" tl="100062429" linkIndex="0"/>
    <connection from="-11274964#0" to="552917812" fromLane="0" toLane="0" tl="100062149" linkIndex="8"/>
    <connection from="-11274964#0" to="-159127467" fromLane="0" toLane="0" tl="100062149" linkIndex="9"/>
    <connection from="-11274964#0" to="-195293117" fromLane="0" toLane="0" tl="100062149" linkIndex="10"/>
    <connection from="-11274964#0" to="11274964#0" fromLane="0" toLane="0" tl="100062149" linkIndex="11"/>
    <connection from="-11287889#1" to="-11287889#0" fromLane="0" toLane="0" tl="100212884" linkIndex="1"/>
    <connection from="-11288402#4" to="-11288402#3" fromLane="0" toLane="0" tl="1994518712" linkIndex="0"/>
    <connection from="-11292318#1" to="158785272#0" fromLane="0" toLane="0" tl="cluster_601280975_601280976" linkIndex="6"/>
    <connection from="-11292318#1" to="-460901389#8" fromLane="0" toLane="0" tl="cluster_601280975_601280976" linkIndex="7"/>
    <connection from="-11292318#1" to="553323097#1" fromLane="0" toLane="2" tl="cluster_601280975_601280976" linkIndex="8"/>
    <connection from="-11292318#1" to="11292318#1" fromLane="0" toLane="0" tl="cluster_601280975_601280976" linkIndex="9"/>
    <connection from="-11292318#15" to="-11292318#14" fromLane="0" toLane="0" tl="382618551" linkIndex="0"/>
    <connection from="-11292649#1" to="513701567#1" fromLane="0" toLane="0" tl="cluster_601280982_601280983" linkIndex="6"/>
    <connection from="-11292649#1" to="-11267302#4" fromLane="0" toLane="0" tl="cluster_601280982_601280983" linkIndex="7"/>
    <connection from="-11292649#1" to="257760938" fromLane="0" toLane="2" tl="cluster_601280982_601280983" linkIndex="8"/>
    <connection from="-11292649#1" to="11292649#1" fromLane="0" toLane="0" tl="cluster_601280982_601280983" linkIndex="9"/>
    <connection from="-11299496#1" to="-11299496#0" fromLane="0" toLane="0" tl="1995750986" linkIndex="1"/>
    <connection from="-11302868#1" to="-11302868#0" fromLane="0" toLane="0" tl="100226310" linkIndex="0"/>
    <connection from="-11307318#1" to="-11271040#5" fromLane="0" toLane="0" tl="100079299" linkIndex="4"/>
    <connection from="-11307318#1" to="-11307318#0" fromLane="0" toLane="0" tl="100079299" linkIndex="5"/>
    <connection from="-11307318#1" to="318362432" fromLane="0" toLane="0" tl="100079299" linkIndex="6"/>
    <connection from="-11307318#1" to="11307318#1" fromLane="0" toLane="0" tl="100079299" linkIndex="7"/>
    <connection from="-11307757#1" to="-11307757#0" fromLane="0" toLane="0" tl="382619554" linkIndex="1"/>
    <connection from="-11310025#0" to="83949276#0" fromLane="0" toLane="0" tl="100062128" linkIndex="8"/>
    <connection from="-11310025#0" to="-552917805" fromLane="0" toLane="0" tl="100062128" linkIndex="9"/>
    <connection from="-11310025#0" to="-193467809#1" fromLane="0" toLane="1" tl="100062128" linkIndex="10"/>
    <connection from="-11310025#0" to="11310025#0" fromLane="0" toLane="0" tl="100062128" linkIndex="11"/>
    <connection from="-11315174" to="-11307773#1" fromLane="0" toLane="0" tl="100563792" linkIndex="1"/>
    <connection from="-11315936#0" to="194226333#1" fromLane="0" toLane="0" tl="100062103" linkIndex="9"/>
    <connection from="-11315936#0" to="-11316845#1" fromLane="0" toLane="0" tl="100062103" linkIndex="10"/>
    <connection from="-11315936#0" to="-194226333#0" fromLane="0" toLane="1" tl="100062103" linkIndex="11"/>
    <connection from="-11315936#0" to="11315936#0" fromLane="0" toLane="0" tl="100062103" linkIndex="12"/>
    <connection from="-158601697#0" to="158785264#9" fromLane="0" toLane="0" tl="cluster_601279532_601279533" linkIndex="6"/>
    <connection from="-158601697#0" to="-11312185#8" fromLane="0" toLane="0" tl="cluster_601279532_601279533" linkIndex="7"/>
    <connection from="-158601697#0" to="158785284#8" fromLane="0" toLane="2" tl="cluster_601279532_601279533" linkIndex="8"/>
    <connection from="-158601697#0" to="158601697#0" fromLane="0" toLane="0" tl="cluster_601279532_601279533" linkIndex="9"/>
    <connection from="-158601939#0" to="47182788#0" fromLane="0" toLane="0" tl="100135129" linkIndex="8"/>
    <connection from="-158601939#0" to="-128955573#5" fromLane="0" toLane="0" tl="100135129" linkIndex="9"/>
    <connection from="-158601939#0" to="-83553243" fromLane="0" toLane="0" tl="100135129" linkIndex="10"/>
    <connection from="-158601939#0" to="158601939#0" fromLane="0" toLane="0" tl="100135129" linkIndex="11"/>
    <connection from="-159127468#0" to="513397497#0" fromLane="0" toLane="0" tl="100210795" linkIndex="8"/>
    <connection from="-159127468#0" to="-128955516" fromLane="0" toLane="0" tl="100210795" linkIndex="9"/>
    <connection from="-159127468#0" to="-11303266#2" fromLane="0" toLane="0" tl="100210795" linkIndex="10"/>
    <connection from="-159127468#0" to="159127468#0" fromLane="0" toLane="0" tl="100210795" linkIndex="11"/>
    <connection from="-159273599#0" to="-194854984#1" fromLane="0" toLane="0" tl="cluster_100591614_2632388615" linkIndex="5"/>
    <connection from="-159273599#0" to="-128619992#12" fromLane="0" toLane="0" tl="cluster_100591614_2632388615" linkIndex="6"/>
    <connection from="-159273599#0" to="257768289#0" fromLane="0" toLane="0" tl="cluster_100591614_2632388615" linkIndex="7"/>
    <connection from="-159273599#0" to="47183432#0" fromLane="0" toLane="1" tl="cluster_100591614_2632388615" linkIndex="8"/>
    <connection from="-159273599#0" to="159273599#0" fromLane="0" toLane="0" tl="cluster_100591614_2632388615" linkIndex="9"/>
    <connection from="-194226333#1" to="-11316845#1" fromLane="0" toLane="0" tl="100062103" linkIndex="4"/>
    <connection from="-194226333#1" to="-194226333#0" fromLane="0" toLane="0" tl="100062103" linkIndex="5"/>
    <connection from="-194226333#1" to="-194226333#0" fromLane="1" toLane="1" tl="100062103" linkIndex="6"/>
    <connection from="-194226333#1" to="11315936#0" fromLane="1" toLane="0" tl="100062103" linkIndex="7"/>
    <connection from="-194226333#1" to="194226333#1" fromLane="1" toLane="1" tl="100062103" linkIndex="8"/>
    <connection from="-194226346#0" to="194226349#0" fromLane="0" toLane="0" tl="cluster_601280964_601280968" linkIndex="16"/>
    <connection from="-194226346#0" to="-552917778#1" fromLane="0" toLane="0" tl="cluster_601280964_601280968" linkIndex="17"/>
    <connection from="-194226346#0" to="513701567#0" fromLane="0" toLane="2" tl="cluster_601280964_601280968" linkIndex="18"/>
    <connection from="-194226346#0" to="194226346#0" fromLane="0" toLane="0" tl="cluster_601280964_601280968" linkIndex="19"/>
    <connection from="-257754868" to="196806818#1" fromLane="0" toLane="0" tl="cluster_601295049_601295216" linkIndex="6"/>
    <connection from="-257754868" to="-11315036#8" fromLane="0" toLane="0" tl="cluster_601295049_601295216" linkIndex="7"/>
    <connection from="-257754868" to="194226349#4" fromLane="0" toLane="2" tl="cluster_601295049_601295216" linkIndex="8"/>
    <connection from="-257754868" to="257754868" fromLane="0" toLane="0" tl="cluster_601295049_601295216" linkIndex="9"/>
    <connection from="-318362432" to="11307318#1" fromLane="0" toLane="0" tl="100079299" linkIndex="8"/>
    <connection from="-318362432" to="-11271040#5" fromLane="0" toLane="0" tl="100079299" linkIndex="9"/>
    <connection from="-318362432" to="-11307318#0" fromLane="0" toLane="0" tl="100079299" linkIndex="10"/>
    <connection from="-318362432" to="318362432" fromLane="0" toLane="0" tl="100079299" linkIndex="11"/>
    <connection from="-47174878" to="513397493" fromLane="0" toLane="0" tl="100482392" linkIndex="0"/>
    <connection from="-47174878" to="-513397497#15" fromLane="0" toLane="0" tl="100482392" linkIndex="1"/>
    <connection from="-47174878" to="-513397495" fromLane="0" toLane="0" tl="100482392" linkIndex="2"/>
    <connection from="-47174878" to="47174878" fromLane="0" toLane="0" tl="100482392" linkIndex="3"/>
    <connection from="-47182788#0" to="-128955573#5" fromLane="0" toLane="0" tl="100135129" linkIndex="4"/>
    <connection from="-47182788#0" to="-83553243" fromLane="0" toLane="0" tl="100135129" linkIndex="5"/>
    <connection from="-47182788#0" to="158601939#0" fromLane="0" toLane="0" tl="100135129" linkIndex="6"/>
    <connection from="-47182788#0" to="47182788#0" fromLane="0" toLane="0" tl="100135129" linkIndex="7"/>
    <connection from="-47183432#0" to="159273599#0" fromLane="0" toLane="0" tl="cluster_100591614_2632388615" linkIndex="10"/>
    <connection from="-47183432#0" to="-194854984#1" fromLane="0" toLane="0" tl="cluster_100591614_2632388615" linkIndex="11"/>
    <connection from="-47183432#0" to="-128619992#12" fromLane="0" toLane="0" tl="cluster_100591614_2632388615" linkIndex="12"/>
    <connection from="-47183432#0" to="257768289#0" fromLane="0" toLane="0" tl="cluster_100591614_2632388615" linkIndex="13"/>
    <connection from="-47183432#0" to="47183432#0" fromLane="0" toLane="1" tl="cluster_100591614_2632388615" linkIndex="14"/>
    <connection from="-513397493" to="-513397497#15" fromLane="0" toLane="0" tl="100482392" linkIndex="12"/>
    <connection from="-513397493" to="-513397495" fromLane="0" toLane="0" tl="100482392" linkIndex="13"/>
    <connection from="-513397493" to="47174878" fromLane="0" toLane="0" tl="100482392" linkIndex="14"/>
    <connection from="-513397493" to="513397493" fromLane="0" toLane="0" tl="100482392" linkIndex="15"/>
    <connection from="-513397497#0" to="-128955516" fromLane="0" toLane="0" tl="100210795" linkIndex="4"/>
    <connection from="-513397497#0" to="-11303266#2" fromLane="0" toLane="0" tl="100210795" linkIndex="5"/>
    <connection from="-513397497#0" to="159127468#0" fromLane="0" toLane="0" tl="100210795" linkIndex="6"/>
    <connection from="-513397497#0" to="513397497#0" fromLane="0" toLane="0" tl="100210795" linkIndex="7"/>
    <connection from="-552917812" to="-159127467" fromLane="0" toLane="0" tl="100062149" linkIndex="4"/>
    <connection from="-552917812" to="-195293117" fromLane="0" toLane="0" tl="100062149" linkIndex="5"/>
    <connection from="-552917812" to="11274964#0" fromLane="0" toLane="0" tl="100062149" linkIndex="6"/>
    <connection from="-552917812" to="552917812" fromLane="0" toLane="0" tl="100062149" linkIndex="7"/>
    <connection from="-81722374#7" to="-81722374#6" fromLane="0" toLane="0" tl="100226452" linkIndex="0"/>
    <connection from="-81722374#8" to="-81722374#7" fromLane="0" toLane="0" tl="100603128" linkIndex="0"/>
    <connection from="-83949276#0" to="-552917805" fromLane="0" toLane="0" tl="100062128" linkIndex="4"/>
    <connection from="-83949276#0" to="-193467809#1" fromLane="0" toLane="1" tl="100062128" linkIndex="5"/>
    <connection from="-83949276#0" to="11310025#0" fromLane="0" toLane="0" tl="100062128" linkIndex="6"/>
    <connection from="-83949276#0" to="83949276#0" fromLane="0" toLane="0" tl="100062128" linkIndex="7"/>
    <connection from="11267302#4" to="257760938" fromLane="0" toLane="0" tl="cluster_601280982_601280983" linkIndex="16"/>
    <connection from="11267302#4" to="11292649#1" fromLane="0" toLane="0" tl="cluster_601280982_601280983" linkIndex="17"/>
    <connection from="11267302#4" to="513701567#1" fromLane="0" toLane="2" tl="cluster_601280982_601280983" linkIndex="18"/>
    <connection from="11267302#4" to="-11267302#4" fromLane="0" toLane="0" tl="cluster_601280982_601280983" linkIndex="19"/>
    <connection from="11271040#5" to="-11307318#0" fromLane="0" toLane="0" tl="100079299" linkIndex="0"/>
    <connection from="11271040#5" to="318362432" fromLane="0" toLane="0" tl="100079299" linkIndex="1"/>
    <connection from="11271040#5" to="11307318#1" fromLane="0" toLane="0" tl="100079299" linkIndex="2"/>
    <connection from="11271040#5" to="-11271040#5" fromLane="0" toLane="0" tl="100079299" linkIndex="3"/>
    <connection from="11287889#0" to="11287889#1" fromLane="0" toLane="0" tl="100212884" linkIndex="0"/>
    <connection from="11288402#3" to="11288402#4" fromLane="0" toLane="0" tl="1994518712" linkIndex="1"/>
    <connection from="11290787" to="11268890#0" fromLane="0" toLane="0" tl="100062429" linkIndex="1"/>
    <connection from="11292318#14" to="11292318#15" fromLane="0" toLane="0" tl="382618551" linkIndex="1"/>
    <connection from="11299496#0" to="11299496#1" fromLane="0" toLane="0" tl="1995750986" linkIndex="0"/>
    <connection from="11302868#0" to="11302868#1" fromLane="0" toLane="0" tl="100226310" linkIndex="1"/>
    <connection from="11303266#2" to="159127468#0" fromLane="0" toLane="0" tl="100210795" linkIndex="12"/>
    <connection from="11303266#2" to="513397497#0" fromLane="0" toLane="0" tl="100210795" linkIndex="13"/>
    <connection from="11303266#2" to="-128955516" fromLane="0" toLane="0" tl="100210795" linkIndex="14"/>
    <connection from="11303266#2" to="-11303266#2" fromLane="0" toLane="0" tl="100210795" linkIndex="15"/>
    <connection from="11307318#0" to="318362432" fromLane="0" toLane="0" tl="100079299" linkIndex="12"/>
    <connection from="11307318#0" to="11307318#1" fromLane="0" toLane="0" tl="100079299" linkIndex="13"/>
    <connection from="11307318#0" to="-11271040#5" fromLane="0" toLane="0" tl="100079299" linkIndex="14"/>
    <connection from="11307318#0" to="-11307318#0" fromLane="0" toLane="0" tl="100079299" linkIndex="15"/>
    <connection from="11307757#0" to="11307757#1" fromLane="0" toLane="0" tl="382619554" linkIndex="0"/>
    <connection from="11307773#1" to="11315174" fromLane="0" toLane="0" tl="100563792" linkIndex="0"/>
    <connection from="11312185#8" to="158785284#8" fromLane="0" toLane="0" tl="cluster_601279532_601279533" linkIndex="16"/>
    <connection from="11312185#8" to="158601697#0" fromLane="0" toLane="0" tl="cluster_601279532_601279533" linkIndex="17"/>
    <connection from="11312185#8" to="158785264#9" fromLane="0" toLane="2" tl="cluster_601279532_601279533" linkIndex="18"/>
    <connection from="11312185#8" to="-11312185#8" fromLane="0" toLane="0" tl="cluster_601279532_601279533" linkIndex="19"/>
    <connection from="11315036#8" to="194226349#4" fromLane="0" toLane="0" tl="cluster_601295049_601295216" linkIndex="16"/>
    <connection from="11315036#8" to="257754868" fromLane="0" toLane="0" tl="cluster_601295049_601295216" linkIndex="17"/>
    <connection from="11315036#8" to="196806818#1" fromLane="0" toLane="2" tl="cluster_601295049_601295216" linkIndex="18"/>
    <connection from="11315036#8" to="-11315036#8" fromLane="0" toLane="0" tl="cluster_601295049_601295216" linkIndex="19"/>
    <connection from="11316845#1" to="-194226333#0" fromLane="0" toLane="0" tl="100062103" linkIndex="0"/>
    <connection from="11316845#1" to="11315936#0" fromLane="0" toLane="0" tl="100062103" linkIndex="1"/>
    <connection from="11316845#1" to="194226333#1" fromLane="0" toLane="1" tl="100062103" linkIndex="2"/>
    <connection from="11316845#1" to="-11316845#1" fromLane="0" toLane="0" tl="100062103" linkIndex="3"/>
    <connection from="128619992#12" to="257768289#0" fromLane="0" toLane="0" tl="cluster_100591614_2632388615" linkIndex="15"/>
    <connection from="128619992#12" to="47183432#0" fromLane="0" toLane="0" tl="cluster_100591614_2632388615" linkIndex="16"/>
    <connection from="128619992#12" to="159273599#0" fromLane="0" toLane="0" tl="cluster_100591614_2632388615" linkIndex="17"/>
    <connection from="128619992#12" to="-194854984#1" fromLane="0" toLane="0" tl="cluster_100591614_2632388615" linkIndex="18"/>
    <connection from="128619992#12" to="-128619992#12" fromLane="0" toLane="0" tl="cluster_100591614_2632388615" linkIndex="19"/>
    <connection from="128709173#4" to="159453093#0" fromLane="0" toLane="0" tl="cluster_601294127_601294274" linkIndex="14"/>
    <connection from="128709173#4" to="158785241" fromLane="0" toLane="0" tl="cluster_601294127_601294274" linkIndex="15"/>
    <connection from="128709173#4" to="158785241" fromLane="1" toLane="1" tl="cluster_601294127_601294274" linkIndex="16"/>
    <connection from="128709173#4" to="158785241" fromLane="2" toLane="2" tl="cluster_601294127_601294274" linkIndex="17"/>
    <connection from="128709173#4" to="-128992766#1" fromLane="2" toLane="0" tl="cluster_601294127_601294274" linkIndex="18"/>
    <connection from="128709173#4" to="158785306#6" fromLane="2" toLane="2" tl="cluster_601294127_601294274" linkIndex="19"/>
    <connection from="128955516" to="-11303266#2" fromLane="0" toLane="0" tl="100210795" linkIndex="0"/>
    <connection from="128955516" to="159127468#0" fromLane="0" toLane="0" tl="100210795" linkIndex="1"/>
    <connection from="128955516" to="513397497#0" fromLane="0" toLane="0" tl="100210795" linkIndex="2"/>
    <connection from="128955516" to="-128955516" fromLane="0" toLane="0" tl="100210795" linkIndex="3"/>
    <connection from="128955573#5" to="-83553243" fromLane="0" toLane="0" tl="100135129" linkIndex="0"/>
    <connection from="128955573#5" to="158601939#0" fromLane="0" toLane="0" tl="100135129" linkIndex="1"/>
    <connection from="128955573#5" to="47182788#0" fromLane="0" toLane="0" tl="100135129" linkIndex="2"/>
    <connection from="128955573#5" to="-128955573#5" fromLane="0" toLane="0" tl="100135129" linkIndex="3"/>
    <connection from="128992766#1" to="158785306#6" fromLane="0" toLane="0" tl="cluster_601294127_601294274" linkIndex="0"/>
    <connection from="128992766#1" to="159453093#0" fromLane="0" toLane="0" tl="cluster_601294127_601294274" linkIndex="1"/>
    <connection from="128992766#1" to="158785241" fromLane="0" toLane="2" tl="cluster_601294127_601294274" linkIndex="2"/>
    <connection from="128992766#1" to="-128992766#1" fromLane="0" toLane="0" tl="cluster_601294127_601294274" linkIndex="3"/>
    <connection from="158785152#2" to="-11267302#4" fromLane="0" toLane="0" tl="cluster_601280982_601280983" linkIndex="0"/>
    <connection from="158785152#2" to="257760938" fromLane="0" toLane="0" tl="cluster_601280982_601280983" linkIndex="1"/>
    <connection from="158785152#2" to="257760938" fromLane="1" toLane="1" tl="cluster_601280982_601280983" linkIndex="2"/>
    <connection from="158785152#2" to="257760938" fromLane="2" toLane="2" tl="cluster_601280982_601280983" linkIndex="3"/>
    <connection from="158785152#2" to="11292649#1" fromLane="2" toLane="0" tl="cluster_601280982_601280983" linkIndex="4"/>
    <connection from="158785152#2" to="513701567#1" fromLane="2" toLane="2" tl="cluster_601280982_601280983" linkIndex="5"/>
    <connection from="158785158#1" to="11292318#1" fromLane="0" toLane="0" tl="cluster_601280975_601280976" linkIndex="10"/>
    <connection from="158785158#1" to="158785272#0" fromLane="0" toLane="0" tl="cluster_601280975_601280976" linkIndex="11"/>
    <connection from="158785158#1" to="158785272#0" fromLane="1" toLane="1" tl="cluster_601280975_601280976" linkIndex="12"/>
    <connection from="158785158#1" to="158785272#0" fromLane="2" toLane="2" tl="cluster_601280975_601280976" linkIndex="13"/>
    <connection from="158785158#1" to="-460901389#8" fromLane="2" toLane="0" tl="cluster_601280975_601280976" linkIndex="14"/>
    <connection from="158785158#1" to="553323097#1" fromLane="2" toLane="2" tl="cluster_601280975_601280976" linkIndex="15"/>
    <connection from="158785264#8" to="158601697#0" fromLane="0" toLane="0" tl="cluster_601279532_601279533" linkIndex="10"/>
    <connection from="158785264#8" to="158785264#9" fromLane="0" toLane="0" tl="cluster_601279532_601279533" linkIndex="11"/>
    <connection from="158785264#8" to="158785264#9" fromLane="1" toLane="1" tl="cluster_601279532_601279533" linkIndex="12"/>
    <connection from="158785264#8" to="158785264#9" fromLane="2" toLane="2" tl="cluster_601279532_601279533" linkIndex="13"/>
    <connection from="158785264#8" to="-11312185#8" fromLane="2" toLane="0" tl="cluster_601279532_601279533" linkIndex="14"/>
    <connection from="158785264#8" to="158785284#8" fromLane="2" toLane="2" tl="cluster_601279532_601279533" linkIndex="15"/>
    <connection from="158785284#7" to="-11312185#8" fromLane="0" toLane="0" tl="cluster_601279532_601279533" linkIndex="0"/>
    <connection from="158785284#7" to="158785284#8" fromLane="0" toLane="0" tl="cluster_601279532_601279533" linkIndex="1"/>
    <connection from="158785284#7" to="158785284#8" fromLane="1" toLane="1" tl="cluster_601279532_601279533" linkIndex="2"/>
    <connection from="158785284#7" to="158785284#8" fromLane="2" toLane="2" tl="cluster_601279532_601279533" linkIndex="3"/>
    <connection from="158785284#7" to="158601697#0" fromLane="2" toLane="0" tl="cluster_601279532_601279533" linkIndex="4"/>