<?xml version="1.0" encoding="UTF-8"?>

<!-- generated on 06/12/19 14:31:44 by Eclipse SUMO netedit Version v1_0_1+0383-8ba62d898b
<configuration xmlns:xsi="http://www.w3.org/2001/XMLSchema-instance" xsi:noNamespaceSchemaLocation="http://sumo.dlr.de/xsd/netconvertConfiguration.xsd">

    <input>
        <sumo-net-file value="Haines_City.net.xml"/>
    </input>

    <output>
        <output-file value="Haines_City.net.xml"/>
        <plain-output-prefix value="C:\sumo-windows10\projects\Haines_City\data\Haines_City"/>
    </output>

    <processing>
        <offset.disable-normalization value="true"/>
        <lefthand value="false"/>
    </processing>

    <junctions>
        <no-turnarounds value="true"/>
        <junctions.corner-detail value="0"/>
        <junctions.limit-turn-speed value="-1"/>
        <rectangular-lane-cut value="false"/>
    </junctions>

    <pedestrian>
        <walkingareas value="false"/>
    </pedestrian>

</configuration>
-->

<connections version="1.0" xmlns:xsi="http://www.w3.org/2001/XMLSchema-instance" xsi:noNamespaceSchemaLocation="http://sumo.dlr.de/xsd/connections_file.xsd">
    <connection from="-11256973" to="-83531005#2" fromLane="0" toLane="0"/>
    <connection from="-11256973" to="83531005#3" fromLane="0" toLane="0"/>
    <connection from="-11256973" to="11256973" fromLane="0" toLane="0"/>

    <connection from="-11256976" to="83531005#1" fromLane="0" toLane="0"/>
    <connection from="-11256976" to="-83531005#0" fromLane="0" toLane="0"/>
    <connection from="-11256976" to="11256976" fromLane="0" toLane="0"/>

    <connection from="-11256984" to="11256984" fromLane="0" toLane="0"/>

    <connection from="-11256985" to="-11313889#2" fromLane="0" toLane="0"/>
    <connection from="-11256985" to="11313889#3" fromLane="0" toLane="0"/>
    <connection from="-11256985" to="11256985" fromLane="0" toLane="0"/>

    <connection from="-11257076" to="-128955570#3" fromLane="0" toLane="0"/>
    <connection from="-11257076" to="128955570#4" fromLane="0" toLane="0"/>
    <connection from="-11257076" to="11257076" fromLane="0" toLane="0"/>

    <connection from="-11258112#0" to="11258112#0" fromLane="0" toLane="0"/>

    <connection from="-11258112#1" to="-11258112#0" fromLane="0" toLane="0"/>
    <connection from="-11258112#1" to="11258114" fromLane="0" toLane="0"/>
    <connection from="-11258112#1" to="11258112#1" fromLane="0" toLane="0"/>

    <connection from="-11258114" to="11258112#1" fromLane="0" toLane="0"/>
    <connection from="-11258114" to="-11258112#0" fromLane="0" toLane="0"/>
    <connection from="-11258114" to="11258114" fromLane="0" toLane="0"/>

    <connection from="-11258121" to="11258822#3" fromLane="0" toLane="0"/>
    <connection from="-11258121" to="-11258822#2" fromLane="0" toLane="0"/>
    <connection from="-11258121" to="11258121" fromLane="0" toLane="0"/>

    <connection from="-11258304" to="11258304" fromLane="0" toLane="0"/>

    <connection from="-11258492" to="-11296446#1" fromLane="0" toLane="0"/>
    <connection from="-11258492" to="151008847#0" fromLane="0" toLane="0"/>
    <connection from="-11258492" to="11258492" fromLane="0" toLane="0"/>

    <connection from="-11258625#0" to="11258625#0" fromLane="0" toLane="0"/>

    <connection from="-11258625#1" to="-11258625#0" fromLane="0" toLane="0"/>
    <connection from="-11258625#1" to="11267194" fromLane="0" toLane="0"/>
    <connection from="-11258625#1" to="11258625#1" fromLane="0" toLane="0"/>

    <connection from="-11258626#0" to="11261530#6" fromLane="0" toLane="0"/>
    <connection from="-11258626#0" to="-11261530#5" fromLane="0" toLane="0"/>
    <connection from="-11258626#0" to="11258626#0" fromLane="0" toLane="0"/>

    <connection from="-11258626#1" to="-11260158#1" fromLane="0" toLane="0"/>
    <connection from="-11258626#1" to="-11258626#0" fromLane="0" toLane="0"/>
    <connection from="-11258626#1" to="11260158#2" fromLane="0" toLane="0"/>
    <connection from="-11258626#1" to="11258626#1" fromLane="0" toLane="0"/>

    <connection from="-11258626#2" to="-11260153#1" fromLane="0" toLane="0"/>
    <connection from="-11258626#2" to="-11258626#1" fromLane="0" toLane="0"/>
    <connection from="-11258626#2" to="11260153#2" fromLane="0" toLane="0"/>
    <connection from="-11258626#2" to="11258626#2" fromLane="0" toLane="0"/>

    <connection from="-11258628#0" to="11258631#4" fromLane="0" toLane="0"/>
    <connection from="-11258628#0" to="-11258631#3" fromLane="0" toLane="0"/>
    <connection from="-11258628#0" to="11258628#0" fromLane="0" toLane="0"/>

    <connection from="-11258628#1" to="11260153#1" fromLane="0" toLane="0"/>
    <connection from="-11258628#1" to="-11258628#0" fromLane="0" toLane="0"/>
    <connection from="-11258628#1" to="-11260153#0" fromLane="0" toLane="0"/>
    <connection from="-11258628#1" to="11258628#1" fromLane="0" toLane="0"/>

    <connection from="-11258628#2" to="11260158#1" fromLane="0" toLane="0"/>
    <connection from="-11258628#2" to="-11258628#1" fromLane="0" toLane="0"/>
    <connection from="-11258628#2" to="-11260158#0" fromLane="0" toLane="0"/>
    <connection from="-11258628#2" to="11258628#2" fromLane="0" toLane="0"/>

    <connection from="-11258631#0" to="11293939#8" fromLane="0" toLane="0"/>
    <connection from="-11258631#0" to="-11293939#7" fromLane="0" toLane="0"/>
    <connection from="-11258631#0" to="11258631#0" fromLane="0" toLane="0"/>

    <connection from="-11258631#1" to="-11258631#0" fromLane="0" toLane="0"/>
    <connection from="-11258631#1" to="-11261530#7" fromLane="0" toLane="0"/>
    <connection from="-11258631#1" to="11258631#1" fromLane="0" toLane="0"/>

    <connection from="-11258631#2" to="-11258631#1" fromLane="0" toLane="0"/>
    <connection from="-11258631#2" to="11260158#0" fromLane="0" toLane="0"/>
    <connection from="-11258631#2" to="11258631#2" fromLane="0" toLane="0"/>

    <connection from="-11258631#3" to="-11258631#2" fromLane="0" toLane="0"/>
    <connection from="-11258631#3" to="11260153#0" fromLane="0" toLane="0"/>
    <connection from="-11258631#3" to="11258631#3" fromLane="0" toLane="0"/>

    <connection from="-11258631#4" to="-11258631#3" fromLane="0" toLane="0"/>
    <connection from="-11258631#4" to="11258628#0" fromLane="0" toLane="0"/>
    <connection from="-11258631#4" to="11258631#4" fromLane="0" toLane="0"/>

    <connection from="-11258631#5" to="-11258631#4" fromLane="0" toLane="0"/>
    <connection from="-11258631#5" to="-11258626#2" fromLane="0" toLane="0"/>
    <connection from="-11258631#5" to="11258631#5" fromLane="0" toLane="0"/>

    <connection from="-11258631#6" to="-11258631#5" fromLane="0" toLane="0"/>
    <connection from="-11258631#6" to="-11267166" fromLane="0" toLane="0"/>
    <connection from="-11258631#6" to="11258631#6" fromLane="0" toLane="0"/>

    <connection from="-11258631#7" to="-11258631#6" fromLane="0" toLane="0"/>
    <connection from="-11258631#7" to="-11266336" fromLane="0" toLane="0"/>
    <connection from="-11258631#7" to="11258631#7" fromLane="0" toLane="0"/>

    <connection from="-11258639#0" to="11258639#0" fromLane="0" toLane="0"/>

    <connection from="-11258639#1" to="-11258639#0" fromLane="0" toLane="0"/>
    <connection from="-11258639#1" to="11281490" fromLane="0" toLane="0"/>
    <connection from="-11258639#1" to="11258639#1" fromLane="0" toLane="0"/>

    <connection from="-11258644#0" to="-11265409" fromLane="0" toLane="0"/>
    <connection from="-11258644#0" to="-11258644#3" fromLane="0" toLane="0"/>
    <connection from="-11258644#0" to="11258644#0" fromLane="0" toLane="0"/>

    <connection from="-11258644#1" to="-11258644#0" fromLane="0" toLane="0"/>
    <connection from="-11258644#1" to="11288872#0" fromLane="0" toLane="0"/>
    <connection from="-11258644#1" to="11258644#1" fromLane="0" toLane="0"/>

    <connection from="-11258644#2" to="11266353" fromLane="0" toLane="0"/>
    <connection from="-11258644#2" to="-11258644#1" fromLane="0" toLane="0"/>
    <connection from="-11258644#2" to="11258644#2" fromLane="0" toLane="0"/>

    <connection from="-11258644#3" to="-11258644#2" fromLane="0" toLane="0"/>
    <connection from="-11258644#3" to="11263387" fromLane="0" toLane="0"/>
    <connection from="-11258644#3" to="11258644#3" fromLane="0" toLane="0"/>

    <connection from="-11258822#0" to="11315036#1" fromLane="0" toLane="0"/>
    <connection from="-11258822#0" to="-11315036#0" fromLane="0" toLane="0"/>
    <connection from="-11258822#0" to="11258822#0" fromLane="0" toLane="0"/>

    <connection from="-11258822#1" to="-11258824#1" fromLane="0" toLane="0"/>
    <connection from="-11258822#1" to="-11258822#0" fromLane="0" toLane="0"/>
    <connection from="-11258822#1" to="11258822#1" fromLane="0" toLane="0"/>

    <connection from="-11258822#10" to="-11258822#9" fromLane="0" toLane="0"/>
    <connection from="-11258822#10" to="-11266815" fromLane="0" toLane="0"/>
    <connection from="-11258822#10" to="11258822#10" fromLane="0" toLane="0"/>

    <connection from="-11258822#11" to="-11258822#10" fromLane="0" toLane="0"/>
    <connection from="-11258822#11" to="11265008" fromLane="0" toLane="0"/>
    <connection from="-11258822#11" to="11258822#11" fromLane="0" toLane="0"/>

    <connection from="-11258822#12" to="-11258822#11" fromLane="0" toLane="0"/>
    <connection from="-11258822#12" to="-11261127" fromLane="0" toLane="0"/>
    <connection from="-11258822#12" to="11258822#12" fromLane="0" toLane="0"/>

    <connection from="-11258822#13" to="-11258822#12" fromLane="0" toLane="0"/>
    <connection from="-11258822#13" to="11259574" fromLane="0" toLane="0"/>
    <connection from="-11258822#13" to="11258822#13" fromLane="0" toLane="0"/>

    <connection from="-11258822#14" to="-11258822#13" fromLane="0" toLane="0"/>
    <connection from="-11258822#14" to="-11259572" fromLane="0" toLane="0"/>
    <connection from="-11258822#14" to="11258822#14" fromLane="0" toLane="0"/>

    <connection from="-11258822#15" to="-11258822#14" fromLane="0" toLane="0"/>
    <connection from="-11258822#15" to="-11259570" fromLane="0" toLane="0"/>
    <connection from="-11258822#15" to="11258822#15" fromLane="0" toLane="0"/>

    <connection from="-11258822#16" to="-11258822#15" fromLane="0" toLane="0"/>
    <connection from="-11258822#16" to="-11258121" fromLane="0" toLane="0"/>
    <connection from="-11258822#16" to="11258822#16" fromLane="0" toLane="0"/>

    <connection from="-11258822#17" to="-11258114" fromLane="0" toLane="0"/>
    <connection from="-11258822#17" to="-11258822#16" fromLane="0" toLane="0"/>
    <connection from="-11258822#17" to="11258822#17" fromLane="0" toLane="0"/>

    <connection from="-11258822#18" to="-11258822#1" fromLane="0" toLane="0"/>
    <connection from="-11258822#18" to="-11258822#17" fromLane="0" toLane="0"/>
    <connection from="-11258822#18" to="11258822#2" fromLane="0" toLane="0"/>
    <connection from="-11258822#18" to="11258822#18" fromLane="0" toLane="0"/>

    <connection from="-11258822#2" to="11258822#18" fromLane="0" toLane="0"/>
    <connection from="-11258822#2" to="-11258822#1" fromLane="0" toLane="0"/>
    <connection from="-11258822#2" to="-11258822#17" fromLane="0" toLane="0"/>
    <connection from="-11258822#2" to="11258822#2" fromLane="0" toLane="0"/>

    <connection from="-11258822#3" to="-11258822#2" fromLane="0" toLane="0"/>
    <connection from="-11258822#3" to="11258121" fromLane="0" toLane="0"/>
    <connection from="-11258822#3" to="11258822#3" fromLane="0" toLane="0"/>

    <connection from="-11258822#4" to="-11258822#3" fromLane="0" toLane="0"/>
    <connection from="-11258822#4" to="11259570" fromLane="0" toLane="0"/>
    <connection from="-11258822#4" to="11258822#4" fromLane="0" toLane="0"/>

    <connection from="-11258822#5" to="-11258822#4" fromLane="0" toLane="0"/>
    <connection from="-11258822#5" to="11259572" fromLane="0" toLane="0"/>
    <connection from="-11258822#5" to="11258822#5" fromLane="0" toLane="0"/>

    <connection from="-11258822#6" to="-11258822#5" fromLane="0" toLane="0"/>
    <connection from="-11258822#6" to="-11259574" fromLane="0" toLane="0"/>
    <connection from="-11258822#6" to="11258822#6" fromLane="0" toLane="0"/>

    <connection from="-11258822#7" to="-11258822#6" fromLane="0" toLane="0"/>
    <connection from="-11258822#7" to="11261127" fromLane="0" toLane="0"/>
    <connection from="-11258822#7" to="11258822#7" fromLane="0" toLane="0"/>

    <connection from="-11258822#8" to="-11258822#7" fromLane="0" toLane="0"/>
    <connection from="-11258822#8" to="-11265008" fromLane="0" toLane="0"/>
    <connection from="-11258822#8" to="11258822#8" fromLane="0" toLane="0"/>

    <connection from="-11258822#9" to="-11258822#8" fromLane="0" toLane="0"/>
    <connection from="-11258822#9" to="11266815" fromLane="0" toLane="0"/>
    <connection from="-11258822#9" to="11258822#9" fromLane="0" toLane="0"/>

    <connection from="-11258824#0" to="11315036#2" fromLane="0" toLane="0"/>
    <connection from="-11258824#0" to="-11315036#1" fromLane="0" toLane="0"/>
    <connection from="-11258824#0" to="11258824#0" fromLane="0" toLane="0"/>

    <connection from="-11258824#1" to="-11266806" fromLane="0" toLane="0"/>
    <connection from="-11258824#1" to="-11258824#0" fromLane="0" toLane="0"/>
    <connection from="-11258824#1" to="11258824#1" fromLane="0" toLane="0"/>

    <connection from="-11259412" to="-11259415#1" fromLane="0" toLane="0"/>
    <connection from="-11259412" to="11259415#2" fromLane="0" toLane="0"/>
    <connection from="-11259412" to="11259412" fromLane="0" toLane="0"/>

    <connection from="-11259415#0" to="11259415#0" fromLane="0" toLane="0"/>

    <connection from="-11259415#1" to="-11259415#0" fromLane="0" toLane="0"/>
    <connection from="-11259415#1" to="-11263686#1" fromLane="0" toLane="0"/>
    <connection from="-11259415#1" to="-11259418" fromLane="0" toLane="0"/>
    <connection from="-11259415#1" to="11259415#1" fromLane="0" toLane="0"/>

    <connection from="-11259415#2" to="11259412" fromLane="0" toLane="0"/>
    <connection from="-11259415#2" to="-11259415#1" fromLane="0" toLane="0"/>
    <connection from="-11259415#2" to="11259415#2" fromLane="0" toLane="0"/>

    <connection from="-11259415#3" to="11259425#3" fromLane="0" toLane="0"/>
    <connection from="-11259415#3" to="-11259415#2" fromLane="0" toLane="0"/>
    <connection from="-11259415#3" to="-11259425#2" fromLane="0" toLane="0"/>
    <connection from="-11259415#3" to="11259415#3" fromLane="0" toLane="0"/>

    <connection from="-11259418" to="-11259425#1" fromLane="0" toLane="0"/>
    <connection from="-11259418" to="11259425#2" fromLane="0" toLane="0"/>
    <connection from="-11259418" to="11259418" fromLane="0" toLane="0"/>

    <connection from="-11259425#0" to="11259425#0" fromLane="0" toLane="0"/>

    <connection from="-11259425#1" to="11264702" fromLane="0" toLane="0"/>
    <connection from="-11259425#1" to="-11259425#0" fromLane="0" toLane="0"/>
    <connection from="-11259425#1" to="11259425#1" fromLane="0" toLane="0"/>

    <connection from="-11259425#2" to="11259418" fromLane="0" toLane="0"/>
    <connection from="-11259425#2" to="-11259425#1" fromLane="0" toLane="0"/>
    <connection from="-11259425#2" to="11259425#2" fromLane="0" toLane="0"/>

    <connection from="-11259425#3" to="-11259415#2" fromLane="0" toLane="0"/>
    <connection from="-11259425#3" to="-11259425#2" fromLane="0" toLane="0"/>
    <connection from="-11259425#3" to="11259415#3" fromLane="0" toLane="0"/>
    <connection from="-11259425#3" to="11259425#3" fromLane="0" toLane="0"/>

    <connection from="-11259496" to="-11286863#0" fromLane="0" toLane="0"/>
    <connection from="-11259496" to="11286863#1" fromLane="0" toLane="0"/>
    <connection from="-11259496" to="11259496" fromLane="0" toLane="0"/>

    <connection from="-11259570" to="11258822#4" fromLane="0" toLane="0"/>
    <connection from="-11259570" to="-11258822#3" fromLane="0" toLane="0"/>
    <connection from="-11259570" to="11259570" fromLane="0" toLane="0"/>

    <connection from="-11259572" to="11258822#5" fromLane="0" toLane="0"/>
    <connection from="-11259572" to="-11258822#4" fromLane="0" toLane="0"/>
    <connection from="-11259572" to="11259572" fromLane="0" toLane="0"/>

    <connection from="-11259574" to="11258822#13" fromLane="0" toLane="0"/>
    <connection from="-11259574" to="-11258822#12" fromLane="0" toLane="0"/>
    <connection from="-11259574" to="11259574" fromLane="0" toLane="0"/>

    <connection from="-11259589" to="-11310262#1" fromLane="0" toLane="0"/>
    <connection from="-11259589" to="11310262#2" fromLane="0" toLane="0"/>
    <connection from="-11259589" to="11259589" fromLane="0" toLane="0"/>

    <connection from="-11259755#0" to="-11259755#1" fromLane="0" toLane="0"/>
    <connection from="-11259755#0" to="11259755#0" fromLane="0" toLane="0"/>

    <connection from="-11259755#1" to="-11259755#0" fromLane="0" toLane="0"/>
    <connection from="-11259755#1" to="-11257076" fromLane="0" toLane="0"/>
    <connection from="-11259755#1" to="11259755#1" fromLane="0" toLane="0"/>

    <connection from="-11259920#0" to="-11261950#0" fromLane="0" toLane="0"/>
    <connection from="-11259920#0" to="11261950#1" fromLane="0" toLane="0"/>
    <connection from="-11259920#0" to="11259920#0" fromLane="0" toLane="0"/>

    <connection from="-11259920#1" to="-11259920#0" fromLane="0" toLane="0"/>
    <connection from="-11259920#1" to="11261946#0" fromLane="0" toLane="0"/>
    <connection from="-11259920#1" to="11259920#1" fromLane="0" toLane="0"/>

    <connection from="-11259920#2" to="-11259920#1" fromLane="0" toLane="0"/>
    <connection from="-11259920#2" to="-11261950#5" fromLane="0" toLane="0"/>
    <connection from="-11259920#2" to="11259920#2" fromLane="0" toLane="0"/>

    <connection from="-11259920#3" to="11261950#0" fromLane="0" toLane="0"/>
    <connection from="-11259920#3" to="-11259920#2" fromLane="0" toLane="0"/>
    <connection from="-11259920#3" to="11259920#3" fromLane="0" toLane="0"/>

    <connection from="-11259920#4" to="-11259920#3" fromLane="0" toLane="0"/>
    <connection from="-11259920#4" to="-11265387#3" fromLane="0" toLane="0"/>
    <connection from="-11259920#4" to="11259920#4" fromLane="0" toLane="0"/>

    <connection from="-11260020" to="11307371#0" fromLane="0" toLane="0"/>
    <connection from="-11260020" to="-11273785#3" fromLane="0" toLane="0"/>
    <connection from="-11260020" to="11260020" fromLane="0" toLane="0"/>

    <connection from="-11260112" to="11292040#1" fromLane="0" toLane="0"/>
    <connection from="-11260112" to="-11292040#0" fromLane="0" toLane="0"/>
    <connection from="-11260112" to="11260112" fromLane="0" toLane="0"/>

    <connection from="-11260113" to="11292040#2" fromLane="0" toLane="0"/>
    <connection from="-11260113" to="-11292040#1" fromLane="0" toLane="0"/>
    <connection from="-11260113" to="11260113" fromLane="0" toLane="0"/>

    <connection from="-11260114" to="11267299#0" fromLane="0" toLane="0"/>
    <connection from="-11260114" to="-11292040#2" fromLane="0" toLane="0"/>
    <connection from="-11260114" to="11260114" fromLane="0" toLane="0"/>

    <connection from="-11260153#0" to="11258631#3" fromLane="0" toLane="0"/>
    <connection from="-11260153#0" to="-11258631#2" fromLane="0" toLane="0"/>
    <connection from="-11260153#0" to="11260153#0" fromLane="0" toLane="0"/>

    <connection from="-11260153#1" to="-11258628#0" fromLane="0" toLane="0"/>
    <connection from="-11260153#1" to="-11260153#0" fromLane="0" toLane="0"/>
    <connection from="-11260153#1" to="11258628#1" fromLane="0" toLane="0"/>
    <connection from="-11260153#1" to="11260153#1" fromLane="0" toLane="0"/>

    <connection from="-11260153#2" to="11258626#2" fromLane="0" toLane="0"/>
    <connection from="-11260153#2" to="-11260153#1" fromLane="0" toLane="0"/>
    <connection from="-11260153#2" to="-11258626#1" fromLane="0" toLane="0"/>
    <connection from="-11260153#2" to="11260153#2" fromLane="0" toLane="0"/>

    <connection from="-11260155#0" to="11261530#4" fromLane="0" toLane="0"/>
    <connection from="-11260155#0" to="-11261530#3" fromLane="0" toLane="0"/>
    <connection from="-11260155#0" to="11260155#0" fromLane="0" toLane="0"/>

    <connection from="-11260155#1" to="-11260158#3" fromLane="0" toLane="0"/>
    <connection from="-11260155#1" to="-11260155#0" fromLane="0" toLane="0"/>
    <connection from="-11260155#1" to="11260158#4" fromLane="0" toLane="0"/>
    <connection from="-11260155#1" to="11260155#1" fromLane="0" toLane="0"/>

    <connection from="-11260158#0" to="11258631#2" fromLane="0" toLane="0"/>
    <connection from="-11260158#0" to="-11258631#1" fromLane="0" toLane="0"/>
    <connection from="-11260158#0" to="11260158#0" fromLane="0" toLane="0"/>

    <connection from="-11260158#1" to="-11258628#1" fromLane="0" toLane="0"/>
    <connection from="-11260158#1" to="-11260158#0" fromLane="0" toLane="0"/>
    <connection from="-11260158#1" to="11258628#2" fromLane="0" toLane="0"/>
    <connection from="-11260158#1" to="11260158#1" fromLane="0" toLane="0"/>

    <connection from="-11260158#2" to="11258626#1" fromLane="0" toLane="0"/>
    <connection from="-11260158#2" to="-11260158#1" fromLane="0" toLane="0"/>
    <connection from="-11260158#2" to="-11258626#0" fromLane="0" toLane="0"/>
    <connection from="-11260158#2" to="11260158#2" fromLane="0" toLane="0"/>

    <connection from="-11260158#3" to="-179173339#0" fromLane="0" toLane="0"/>
    <connection from="-11260158#3" to="-11260158#2" fromLane="0" toLane="0"/>
    <connection from="-11260158#3" to="179173339#1" fromLane="0" toLane="0"/>
    <connection from="-11260158#3" to="11260158#3" fromLane="0" toLane="0"/>

    <connection from="-11260158#4" to="11260155#1" fromLane="0" toLane="0"/>
    <connection from="-11260158#4" to="-11260158#3" fromLane="0" toLane="0"/>
    <connection from="-11260158#4" to="-11260155#0" fromLane="0" toLane="0"/>
    <connection from="-11260158#4" to="11260158#4" fromLane="0" toLane="0"/>

    <connection from="-11260158#5" to="11260162#1" fromLane="0" toLane="0"/>
    <connection from="-11260158#5" to="-11260158#4" fromLane="0" toLane="0"/>
    <connection from="-11260158#5" to="-11260162#0" fromLane="0" toLane="0"/>
    <connection from="-11260158#5" to="11260158#5" fromLane="0" toLane="0"/>

    <connection from="-11260158#6" to="-11261519#0" fromLane="0" toLane="0"/>
    <connection from="-11260158#6" to="-11260158#5" fromLane="0" toLane="0"/>
    <connection from="-11260158#6" to="11261519#1" fromLane="0" toLane="0"/>
    <connection from="-11260158#6" to="11260158#6" fromLane="0" toLane="0"/>

    <connection from="-11260160#0" to="11261521#1" fromLane="0" toLane="0"/>
    <connection from="-11260160#0" to="-11261521#0" fromLane="0" toLane="0"/>
    <connection from="-11260160#0" to="11260160#0" fromLane="0" toLane="0"/>

    <connection from="-11260160#1" to="11261520#1" fromLane="0" toLane="0"/>
    <connection from="-11260160#1" to="-11260160#0" fromLane="0" toLane="0"/>
    <connection from="-11260160#1" to="-11261520#0" fromLane="0" toLane="0"/>
    <connection from="-11260160#1" to="11260160#1" fromLane="0" toLane="0"/>

    <connection from="-11260162#0" to="11261530#3" fromLane="0" toLane="0"/>
    <connection from="-11260162#0" to="-11261530#2" fromLane="0" toLane="0"/>
    <connection from="-11260162#0" to="11260162#0" fromLane="0" toLane="0"/>

    <connection from="-11260162#1" to="-11260158#4" fromLane="0" toLane="0"/>
    <connection from="-11260162#1" to="-11260162#0" fromLane="0" toLane="0"/>
    <connection from="-11260162#1" to="11260158#5" fromLane="0" toLane="0"/>
    <connection from="-11260162#1" to="11260162#1" fromLane="0" toLane="0"/>

    <connection from="-11260162#2" to="11261528" fromLane="0" toLane="0"/>
    <connection from="-11260162#2" to="-11260162#1" fromLane="0" toLane="0"/>
    <connection from="-11260162#2" to="11260162#2" fromLane="0" toLane="0"/>

    <connection from="-11260164#0" to="11260164#0" fromLane="0" toLane="0"/>

    <connection from="-11260164#1" to="-11261520#2" fromLane="0" toLane="0"/>
    <connection from="-11260164#1" to="-11260164#0" fromLane="0" toLane="0"/>
    <connection from="-11260164#1" to="11261520#3" fromLane="0" toLane="0"/>
    <connection from="-11260164#1" to="11260164#1" fromLane="0" toLane="0"/>

    <connection from="-11260166#0" to="11261521#4" fromLane="0" toLane="0"/>
    <connection from="-11260166#0" to="-11261521#3" fromLane="0" toLane="0"/>
    <connection from="-11260166#0" to="11260166#0" fromLane="0" toLane="0"/>

    <connection from="-11260166#1" to="11261520#4" fromLane="0" toLane="0"/>
    <connection from="-11260166#1" to="-11260166#0" fromLane="0" toLane="0"/>
    <connection from="-11260166#1" to="-11261520#3" fromLane="0" toLane="0"/>
    <connection from="-11260166#1" to="11260166#1" fromLane="0" toLane="0"/>

    <connection from="-11260166#2" to="11261519#0" fromLane="0" toLane="0"/>
    <connection from="-11260166#2" to="-11260166#1" fromLane="0" toLane="0"/>
    <connection from="-11260166#2" to="-11258631#7" fromLane="0" toLane="0"/>
    <connection from="-11260166#2" to="11260166#2" fromLane="0" toLane="0"/>

    <connection from="-11260166#3" to="-11260162#2" fromLane="0" toLane="0"/>
    <connection from="-11260166#3" to="-11260166#2" fromLane="0" toLane="0"/>
    <connection from="-11260166#3" to="11260166#3" fromLane="0" toLane="0"/>

    <connection from="-11260219#0" to="151008853" fromLane="0" toLane="0"/>
    <connection from="-11260219#0" to="-11260222#2" fromLane="0" toLane="0"/>
    <connection from="-11260219#0" to="151008856#0" fromLane="0" toLane="0"/>
    <connection from="-11260219#0" to="11260219#0" fromLane="0" toLane="0"/>

    <connection from="-11260222#1" to="151008856#1" fromLane="0" toLane="0"/>
    <connection from="-11260222#1" to="-11260219#0" fromLane="0" toLane="0"/>
    <connection from="-11260222#1" to="151008855#1" fromLane="0" toLane="0"/>
    <connection from="-11260222#1" to="11260222#1" fromLane="0" toLane="0"/>

    <connection from="-11260222#2" to="-11263843#5" fromLane="0" toLane="0"/>
    <connection from="-11260222#2" to="-11260222#1" fromLane="0" toLane="0"/>
    <connection from="-11260222#2" to="11260222#2" fromLane="0" toLane="0"/>

    <connection from="-11260433" to="11285093#3" fromLane="0" toLane="0"/>
    <connection from="-11260433" to="-11285093#2" fromLane="0" toLane="0"/>
    <connection from="-11260433" to="11260433" fromLane="0" toLane="0"/>

    <connection from="-11260462#0" to="11260462#0" fromLane="0" toLane="0"/>

    <connection from="-11260462#1" to="-11264718#0" fromLane="0" toLane="0"/>
    <connection from="-11260462#1" to="-11260462#0" fromLane="0" toLane="0"/>
    <connection from="-11260462#1" to="11264718#1" fromLane="0" toLane="0"/>
    <connection from="-11260462#1" to="11260462#1" fromLane="0" toLane="0"/>

    <connection from="-11260465" to="128955570#5" fromLane="0" toLane="0"/>
    <connection from="-11260465" to="-128955570#4" fromLane="0" toLane="0"/>
    <connection from="-11260465" to="11260465" fromLane="0" toLane="0"/>

    <connection from="-11260469#0" to="11260469#0" fromLane="0" toLane="0"/>

    <connection from="-11260469#1" to="-11260469#0" fromLane="0" toLane="0"/>
    <connection from="-11260469#1" to="-11310861" fromLane="0" toLane="0"/>
    <connection from="-11260469#1" to="11260469#1" fromLane="0" toLane="0"/>

    <connection from="-11260516" to="11312057#6" fromLane="0" toLane="0"/>
    <connection from="-11260516" to="-11312057#5" fromLane="0" toLane="0"/>
    <connection from="-11260516" to="11260516" fromLane="0" toLane="0"/>

    <connection from="-11260531" to="-11305859" fromLane="0" toLane="0"/>
    <connection from="-11260531" to="11260531" fromLane="0" toLane="0"/>

    <connection from="-11260867" to="-11312057#6" fromLane="0" toLane="0"/>
    <connection from="-11260867" to="11312057#7" fromLane="0" toLane="0"/>
    <connection from="-11260867" to="11260867" fromLane="0" toLane="0"/>

    <connection from="-11261068#0" to="11292649#4" fromLane="0" toLane="0"/>
    <connection from="-11261068#0" to="147083025#0" fromLane="0" toLane="0"/>
    <connection from="-11261068#0" to="-11292649#3" fromLane="0" toLane="0"/>
    <connection from="-11261068#0" to="11261068#0" fromLane="0" toLane="0"/>

    <connection from="-11261068#1" to="-11261068#0" fromLane="0" toLane="0"/>
    <connection from="-11261068#1" to="-131563736#1" fromLane="0" toLane="0"/>
    <connection from="-11261068#1" to="11261068#1" fromLane="0" toLane="0"/>

    <connection from="-11261127" to="11258822#7" fromLane="0" toLane="0"/>
    <connection from="-11261127" to="-11258822#6" fromLane="0" toLane="0"/>
    <connection from="-11261127" to="11261127" fromLane="0" toLane="0"/>

    <connection from="-11261144#0" to="11261144#0" fromLane="0" toLane="0"/>

    <connection from="-11261144#1" to="-11261144#0" fromLane="0" toLane="0"/>
    <connection from="-11261144#1" to="11265011#0" fromLane="0" toLane="0"/>
    <connection from="-11261144#1" to="11261144#1" fromLane="0" toLane="0"/>

    <connection from="-11261511" to="11292040#0" fromLane="0" toLane="0"/>
    <connection from="-11261511" to="-11267299#1" fromLane="0" toLane="0"/>
    <connection from="-11261511" to="11267302#0" fromLane="0" toLane="0"/>
    <connection from="-11261511" to="11261511" fromLane="0" toLane="0"/>

    <connection from="-11261519#0" to="-11260166#1" fromLane="0" toLane="0"/>
    <connection from="-11261519#0" to="-11258631#7" fromLane="0" toLane="0"/>
    <connection from="-11261519#0" to="11260166#2" fromLane="0" toLane="0"/>
    <connection from="-11261519#0" to="11261519#0" fromLane="0" toLane="0"/>

    <connection from="-11261519#1" to="11260158#6" fromLane="0" toLane="0"/>
    <connection from="-11261519#1" to="-11261519#0" fromLane="0" toLane="0"/>
    <connection from="-11261519#1" to="-11260158#5" fromLane="0" toLane="0"/>