<?xml version="1.0" encoding="UTF-8"?>

<!-- generated on 06/12/19 14:31:44 by Eclipse SUMO netedit Version v1_0_1+0383-8ba62d898b
<configuration xmlns:xsi="http://www.w3.org/2001/XMLSchema-instance" xsi:noNamespaceSchemaLocation="http://sumo.dlr.de/xsd/netconvertConfiguration.xsd">

    <input>
        <sumo-net-file value="Haines_City.net.xml"/>
    </input>

    <output>
        <output-file value="Haines_City.net.xml"/>
        <plain-output-prefix value="C:\sumo-windows10\projects\Haines_City\data\Haines_City"/>
    </output>

    <processing>
        <offset.disable-normalization value="true"/>
        <lefthand value="false"/>
    </processing>

    <junctions>
        <no-turnarounds value="true"/>
        <junctions.corner-detail value="0"/>
        <junctions.limit-turn-speed value="-1"/>
        <rectangular-lane-cut value="false"/>
    </junctions>

    <pedestrian>
        <walkingareas value="false"/>
    </pedestrian>

</configuration>
-->

<nodes version="1.0" xmlns:xsi="http://www.w3.org/2001/XMLSchema-instance" xsi:noNamespaceSchemaLocation="http://sumo.dlr.de/xsd/nodes_file.xsd">
    <location netOffset="-421839.77,-3101044.07" convBoundary="0.00,0.00,25144.28,25351.49" origBoundary="-81.827873,27.917190,-81.540515,28.262462" projParameter="+proj=utm +zone=17 +ellps=WGS84 +datum=WGS84 +units=m +no_defs"/>

    <node id="100000378" x="19850.78" y="11751.66" type="right_before_left"/>
    <node id="100000380" x="19851.28" y="11792.98" type="right_before_left"/>
    <node id="100000382" x="19851.79" y="11836.07" type="right_before_left"/>
    <node id="100000384" x="19850.93" y="11882.71" type="right_before_left"/>
    <node id="100000396" x="19910.42" y="11918.87" type="right_before_left"/>
    <node id="100000407" x="20042.00" y="11876.69" type="right_before_left"/>
    <node id="100000519" x="15297.46" y="8123.45" type="priority"/>
    <node id="100000538" x="14891.61" y="7830.05" type="priority"/>
    <node id="100000763" x="12832.59" y="7370.60" type="priority"/>
    <node id="100000791" x="12805.13" y="7450.63" type="priority"/>
    <node id="100001555" x="14773.32" y="10262.91" type="priority"/>
    <node id="100001558" x="14773.49" y="10293.71" type="priority"/>
    <node id="100001562" x="14693.97" y="10263.34" type="priority"/>
    <node id="100001564" x="14692.36" y="10294.36" type="priority"/>
    <node id="100001568" x="14640.14" y="10262.07" type="priority"/>
    <node id="100001570" x="14633.34" y="10294.46" type="priority"/>
    <node id="100001821" x="18066.67" y="7224.11" type="right_before_left"/>
    <node id="100001827" x="18045.24" y="7244.14" type="right_before_left"/>
    <node id="100001831" x="18025.92" y="7224.66" type="right_before_left"/>
    <node id="100001835" x="18031.13" y="7210.34" type="right_before_left"/>
    <node id="100001838" x="18044.01" y="7203.75" type="right_before_left"/>
    <node id="100001841" x="18068.85" y="7268.46" type="right_before_left"/>
    <node id="100001842" x="18068.42" y="7319.53" type="right_before_left"/>
    <node id="100001849" x="18045.04" y="7319.43" type="right_before_left"/>
    <node id="100001850" x="18045.08" y="7268.58" type="right_before_left"/>
    <node id="100001856" x="17974.55" y="7268.71" type="right_before_left"/>
    <node id="100001857" x="17948.80" y="7267.73" type="right_before_left"/>
    <node id="100001860" x="17897.52" y="7267.77" type="right_before_left"/>
    <node id="100001861" x="17845.95" y="6976.23" type="right_before_left"/>
    <node id="100001863" x="17896.44" y="6975.75" type="right_before_left"/>
    <node id="100001865" x="17937.51" y="6976.98" type="priority"/>
    <node id="100001867" x="17974.21" y="7319.23" type="right_before_left"/>
    <node id="100001868" x="17974.81" y="7223.95" type="right_before_left"/>
    <node id="100001870" x="17975.24" y="7153.16" type="right_before_left"/>
    <node id="100001872" x="17917.35" y="7069.81" type="priority"/>
    <node id="100001874" x="17896.92" y="7070.80" type="right_before_left"/>
    <node id="100001878" x="17846.62" y="7070.39" type="right_before_left"/>
    <node id="100001880" x="17846.91" y="7127.44" type="right_before_left"/>
    <node id="100001882" x="17896.81" y="7127.41" type="right_before_left"/>
    <node id="100002177" x="14918.27" y="13945.73" type="priority"/>
    <node id="100002221" x="14795.39" y="14157.87" type="priority"/>
    <node id="100002242" x="14835.90" y="13947.27" type="priority"/>
    <node id="100003782" x="18148.68" y="10563.42" type="priority"/>
    <node id="100003799" x="18210.15" y="10424.29" type="priority"/>
    <node id="100003931" x="22610.59" y="12736.42" type="priority"/>
    <node id="100003966" x="19507.96" y="15761.72" type="priority"/>
    <node id="100003981" x="19635.54" y="15692.96" type="priority"/>
    <node id="100003982" x="19675.79" y="15678.87" type="priority"/>
    <node id="100003993" x="19638.74" y="15532.38" type="priority"/>
    <node id="100003996" x="19591.40" y="15560.68" type="priority"/>
    <node id="100004001" x="19453.45" y="15456.66" type="priority"/>
    <node id="100004011" x="19589.64" y="15443.14" type="priority"/>
    <node id="100004015" x="19615.38" y="15439.85" type="priority"/>
    <node id="100004297" x="13411.23" y="8551.52" type="priority"/>
    <node id="100004298" x="13308.42" y="8574.67" type="priority"/>
    <node id="100004383" x="17904.21" y="7971.43" type="priority"/>
    <node id="100004387" x="17904.19" y="8063.05" type="priority"/>
    <node id="100006602" x="13403.01" y="8528.51" type="priority"/>
    <node id="100006607" x="13504.02" y="8537.61" type="priority"/>
    <node id="100006786" x="16323.28" y="5678.43" type="priority"/>
    <node id="100007757" x="15740.15" y="10133.52" type="priority"/>
    <node id="100007760" x="15714.62" y="10078.59" type="priority"/>
    <node id="100007788" x="15643.66" y="9861.94" type="priority"/>
    <node id="100008334" x="13428.57" y="8288.42" type="priority"/>
    <node id="100008339" x="13455.17" y="8285.17" type="priority"/>
    <node id="100008341" x="13503.59" y="8282.59" type="priority"/>
    <node id="100008457" x="15040.75" y="8196.30" type="priority"/>
    <node id="100011163" x="14859.55" y="10262.24" type="priority"/>
    <node id="100011164" x="14860.21" y="10293.58" type="priority"/>
    <node id="100011228" x="17949.26" y="7319.24" type="right_before_left"/>
    <node id="100011232" x="17896.09" y="6925.12" type="priority"/>
    <node id="100011234" x="17896.68" y="7022.83" type="right_before_left"/>
    <node id="100011236" x="17898.57" y="7319.06" type="right_before_left"/>
    <node id="100011239" x="17845.89" y="6925.27" type="priority"/>
    <node id="100011241" x="17846.19" y="7023.31" type="right_before_left"/>
    <node id="100011245" x="17849.45" y="7318.86" type="right_before_left"/>
    <node id="100011247" x="17849.48" y="7325.84" type="priority"/>
    <node id="100011959" x="15923.37" y="7088.00" type="priority"/>
    <node id="100011968" x="16045.58" y="7089.25" type="priority"/>
    <node id="100014580" x="19922.18" y="11793.19" type="right_before_left"/>
    <node id="100014584" x="20173.08" y="11791.74" type="right_before_left"/>
    <node id="100014601" x="19921.49" y="11751.65" type="right_before_left"/>
    <node id="100014623" x="20090.21" y="11834.35" type="right_before_left"/>
    <node id="100014625" x="19922.39" y="11835.06" type="right_before_left"/>
    <node id="100015022" x="17446.29" y="14095.99" type="priority"/>
    <node id="100015024" x="17461.61" y="14116.30" type="priority"/>
    <node id="100015648" x="14967.80" y="9522.95" type="priority"/>
    <node id="100015650" x="14967.47" y="9497.81" type="priority"/>
    <node id="100015652" x="14966.89" y="9407.96" type="priority"/>
    <node id="100015655" x="14968.73" y="9347.36" type="priority"/>
    <node id="100015658" x="15009.20" y="9347.47" type="priority"/>
    <node id="100015659" x="15009.18" y="9361.32" type="priority"/>
    <node id="100015665" x="15010.19" y="9497.47" type="priority"/>
    <node id="100015666" x="15009.72" y="9538.13" type="priority"/>
    <node id="100015669" x="15096.51" y="9549.75" type="priority"/>
    <node id="100015670" x="15095.16" y="9498.02" type="priority"/>
    <node id="100015679" x="15052.69" y="9361.09" type="priority"/>
    <node id="100015682" x="15053.39" y="9549.20" type="priority"/>
    <node id="100015686" x="15053.12" y="9497.69" type="priority"/>
    <node id="100015700" x="14927.28" y="9493.92" type="priority"/>
    <node id="100015731" x="14105.75" y="13809.81" type="priority"/>
    <node id="100015734" x="14122.04" y="13587.27" type="priority"/>
    <node id="100015840" x="16072.28" y="10919.90" type="priority"/>
    <node id="100015847" x="16118.23" y="10935.29" type="priority"/>
    <node id="100015853" x="16107.43" y="10879.51" type="priority"/>
    <node id="100015858" x="16093.15" y="10834.60" type="priority"/>
    <node id="100016130" x="18651.60" y="8057.42" type="priority"/>
    <node id="100016142" x="18754.92" y="8053.91" type="priority"/>
    <node id="100016165" x="19132.03" y="8053.70" type="priority"/>
    <node id="100016328" x="15894.00" y="7287.81" type="priority"/>
    <node id="100016604" x="15631.68" y="10706.62" type="priority"/>
    <node id="100016605" x="15651.44" y="10673.06" type="priority"/>
    <node id="100016624" x="15693.01" y="10696.99" type="priority"/>
    <node id="100016625" x="15671.10" y="10731.45" type="priority"/>
    <node id="100016627" x="15732.72" y="10722.38" type="priority"/>
    <node id="100016628" x="15711.00" y="10756.72" type="priority"/>
    <node id="100016663" x="15798.11" y="10755.27" type="priority"/>
    <node id="100019049" x="18053.75" y="8132.31" type="priority"/>
    <node id="100019069" x="18112.29" y="8132.54" type="priority"/>
    <node id="100019104" x="19670.98" y="6525.55" type="priority"/>
    <node id="100020337" x="15782.44" y="10801.44" type="priority"/>
    <node id="100020344" x="15764.25" y="10835.99" type="priority"/>
    <node id="100020351" x="15772.14" y="10748.43" type="priority"/>
    <node id="100020353" x="15750.52" y="10782.33" type="priority"/>
    <node id="100020357" x="15852.03" y="10811.82" type="priority"/>
    <node id="100020358" x="15884.61" y="10789.16" type="priority"/>
    <node id="100020364" x="15910.31" y="10840.32" type="priority"/>
    <node id="100020368" x="15871.39" y="10851.71" type="priority"/>
    <node id="100020460" x="19637.12" y="8130.43" type="priority"/>
    <node id="100020529" x="19638.29" y="8508.97" type="priority"/>
    <node id="100020535" x="18626.90" y="8265.59" type="priority"/>
    <node id="100021399" x="14814.85" y="4014.27" type="priority"/>
    <node id="100021405" x="14794.26" y="3967.63" type="priority"/>
    <node id="100022606" x="13196.65" y="7366.63" type="priority"/>
    <node id="100022607" x="13207.28" y="7298.66" type="priority"/>
    <node id="100023162" x="17683.96" y="13181.26" type="priority"/>
    <node id="100023174" x="17686.36" y="12958.13" type="priority"/>
    <node id="100023732" x="18944.28" y="8760.65" type="priority"/>
    <node id="100023743" x="18877.98" y="8939.34" type="priority"/>
    <node id="100024078" x="12823.81" y="13606.39" type="priority"/>
    <node id="100024113" x="12780.61" y="13230.51" type="priority"/>
    <node id="100024158" x="17845.36" y="8027.45" type="priority"/>
    <node id="100024171" x="17845.06" y="7948.46" type="priority"/>
    <node id="100024178" x="17937.28" y="8061.99" type="priority"/>
    <node id="100024182" x="17845.05" y="8063.35" type="priority"/>
    <node id="100024194" x="16095.44" y="10783.08" type="priority"/>
    <node id="100024215" x="17802.99" y="8234.72" type="priority"/>
    <node id="100024220" x="17796.88" y="8132.72" type="priority"/>
    <node id="100024225" x="17685.93" y="8133.11" type="priority"/>
    <node id="100024237" x="15985.23" y="10799.94" type="priority"/>
    <node id="100024258" x="18163.19" y="14569.73" type="priority"/>
    <node id="100024329" x="15060.81" y="8286.89" type="priority"/>
    <node id="100024336" x="14999.32" y="8240.68" type="priority"/>
    <node id="100024350" x="14814.30" y="8211.44" type="priority"/>
    <node id="100024360" x="14731.57" y="8137.11" type="priority"/>
    <node id="100024793" x="15900.31" y="7169.22" type="priority"/>
    <node id="100025110" x="15758.59" y="10729.66" type="priority"/>
    <node id="100025132" x="15719.08" y="10704.06" type="priority"/>
    <node id="100025136" x="15698.71" y="10640.13" type="priority"/>
    <node id="100025142" x="15679.26" y="10678.45" type="priority"/>
    <node id="100025148" x="15774.61" y="10638.18" type="priority"/>
    <node id="100026376" x="14781.20" y="3968.80" type="priority"/>
    <node id="100026757" x="14990.53" y="8072.97" type="priority"/>
    <node id="100026762" x="14962.98" y="8046.02" type="priority"/>
    <node id="100026813" x="14891.18" y="8124.25" type="priority"/>
    <node id="100027463" x="14794.45" y="14212.40" type="priority"/>
    <node id="100028403" x="17375.40" y="8132.25" type="priority"/>
    <node id="100028416" x="17453.75" y="8073.08" type="priority"/>
    <node id="100028680" x="15935.73" y="10893.36" type="priority"/>
    <node id="100028684" x="15973.09" y="10881.65" type="priority"/>
    <node id="100028709" x="15921.56" y="10849.79" type="priority"/>
    <node id="100028990" x="12877.23" y="8346.92" type="priority"/>
    <node id="100028992" x="12878.25" y="8390.68" type="priority"/>
    <node id="100031148" x="19713.76" y="8615.73" type="priority"/>
    <node id="100031170" x="19728.21" y="8939.58" type="priority"/>
    <node id="100031402" x="14007.73" y="4995.56" type="priority"/>
    <node id="100031406" x="13988.96" y="4972.85" type="right_before_left"/>
    <node id="100031464" x="13543.16" y="4845.96" type="priority"/>
    <node id="100031555" x="16992.78" y="7236.36" type="priority"/>
    <node id="100031563" x="16995.60" y="7153.04" type="priority"/>
    <node id="100031953" x="17682.25" y="8536.27" type="priority"/>
    <node id="100031955" x="17681.57" y="8502.67" type="priority"/>
    <node id="100032145" x="15815.79" y="10662.67" type="priority"/>
    <node id="100032165" x="15849.75" y="10696.51" type="priority"/>
    <node id="100032168" x="15851.06" y="10682.43" type="priority"/>
    <node id="100032171" x="15871.90" y="10724.86" type="priority"/>
    <node id="100032537" x="17481.25" y="12166.52" type="priority"/>
    <node id="100032570" x="15078.07" y="9046.28" type="priority"/>
    <node id="100033500" x="14738.18" y="3953.74" type="priority"/>
    <node id="100033551" x="19691.31" y="15739.67" type="priority"/>
    <node id="100033581" x="19663.80" y="15631.66" type="priority"/>
    <node id="100034434" x="16697.04" y="4743.37" type="priority"/>
    <node id="100034437" x="16745.25" y="4774.59" type="priority"/>
    <node id="100034839" x="18752.84" y="7783.98" type="priority"/>
    <node id="100034858" x="18755.61" y="8132.68" type="priority"/>
    <node id="100035304" x="15907.18" y="10805.00" type="priority"/>
    <node id="100035308" x="15937.24" y="10768.72" type="priority"/>
    <node id="100035309" x="15971.14" y="10752.81" type="priority"/>
    <node id="100035312" x="15980.74" y="10748.56" type="priority"/>
    <node id="100035321" x="15996.61" y="10796.44" type="priority"/>
    <node id="100035322" x="16003.04" y="10844.16" type="priority"/>
    <node id="100035560" x="13446.17" y="8164.91" type="priority"/>
    <node id="100035562" x="13444.11" y="8146.71" type="priority"/>
    <node id="100035581" x="13547.34" y="8307.83" type="priority"/>
    <node id="100035592" x="13576.31" y="8306.45" type="priority"/>
    <node id="100035602" x="13494.97" y="8160.33" type="priority"/>
    <node id="100036848" x="18148.30" y="6088.00" type="priority"/>
    <node id="100037553" x="18973.68" y="14005.33" type="priority"/>
    <node id="100037559" x="18993.77" y="14078.31" type="priority"/>
    <node id="100037561" x="18995.89" y="14042.03" type="priority"/>
    <node id="100037569" x="19007.59" y="14020.01" type="priority"/>
    <node id="100037612" x="18734.17" y="14339.10" type="priority"/>
    <node id="100037638" x="18779.59" y="14193.41" type="priority"/>
    <node id="100037689" x="19904.78" y="13497.45" type="priority"/>
    <node id="100037694" x="19906.65" y="13437.29" type="priority"/>
    <node id="100038132" x="16294.28" y="11477.99" type="priority"/>
    <node id="100038134" x="16293.55" y="11374.74" type="priority"/>
    <node id="100038143" x="20189.46" y="11876.18" type="priority"/>
    <node id="100038146" x="20090.70" y="11875.90" type="right_before_left"/>
    <node id="100038150" x="19921.01" y="11875.73" type="right_before_left"/>
    <node id="100038297" x="17676.08" y="8216.31" type="priority"/>
    <node id="100038632" x="13127.41" y="5493.20" type="priority"/>
    <node id="100038634" x="13152.85" y="5491.51" type="priority"/>
    <node id="100038636" x="13177.90" y="5489.71" type="priority"/>
    <node id="100038640" x="15927.37" y="10663.75" type="priority"/>
    <node id="100038648" x="15975.18" y="10641.90" type="priority"/>
    <node id="100038650" x="15938.44" y="10658.71" type="priority"/>
    <node id="100038660" x="16944.66" y="10969.74" type="priority"/>
    <node id="100038662" x="15951.34" y="10704.17" type="priority"/>
    <node id="100038666" x="15958.79" y="10701.36" type="priority"/>
    <node id="100038995" x="15021.53" y="8189.84" type="priority"/>
    <node id="100039584" x="14775.42" y="9974.20" type="priority"/>
    <node id="100039586" x="14880.21" y="9934.76" type="priority"/>
    <node id="100040453" x="16270.87" y="5024.30" type="priority"/>
    <node id="100041146" x="17739.26" y="10493.96" type="priority"/>
    <node id="100041416" x="16012.36" y="10840.78" type="priority"/>
    <node id="100041482" x="15979.08" y="10900.78" type="priority"/>
    <node id="100041483" x="16013.70" y="10890.41" type="priority"/>
    <node id="100041493" x="16026.05" y="10886.25" type="priority"/>
    <node id="100041980" x="14744.44" y="7464.28" type="priority"/>
    <node id="100042000" x="16361.13" y="6253.53" type="priority"/>
    <node id="100042002" x="16322.43" y="6254.28" type="priority"/>
    <node id="100043857" x="18804.02" y="10895.92" type="priority"/>
    <node id="100043866" x="18794.82" y="10961.11" type="priority"/>
    <node id="100043941" x="17675.37" y="8250.65" type="priority"/>
    <node id="100043944" x="17937.15" y="7022.52" type="priority"/>
    <node id="100044532" x="16043.32" y="10694.39" type="priority"/>
    <node id="100044534" x="16007.65" y="10710.42" type="priority"/>
    <node id="100044536" x="16022.76" y="10651.07" type="priority"/>
    <node id="100044539" x="16050.55" y="10668.32" type="priority"/>
    <node id="100044540" x="16087.08" y="10667.46" type="priority"/>
    <node id="100045658" x="17421.71" y="5674.02" type="priority"/>
    <node id="100046299" x="19420.38" y="8939.32" type="priority"/>
    <node id="100046314" x="19409.04" y="8692.00" type="priority"/>
    <node id="100046559" x="14780.68" y="9317.22" type="priority"/>
    <node id="100046562" x="14877.68" y="9346.84" type="priority"/>
    <node id="100046671" x="14681.41" y="8124.51" type="priority"/>
    <node id="100046747" x="15091.02" y="8318.58" type="priority"/>
    <node id="100046771" x="15422.27" y="8135.65" type="priority"/>
    <node id="100047011" x="13637.87" y="7028.34" type="priority"/>
    <node id="100047020" x="13595.87" y="7072.77" type="priority"/>
    <node id="100047022" x="13687.47" y="7125.67" type="priority"/>
    <node id="100047034" x="13670.65" y="7058.07" type="priority"/>
    <node id="100047746" x="19574.68" y="15574.49" type="priority"/>
    <node id="100048449" x="19007.56" y="14449.18" type="priority"/>
    <node id="100048450" x="18992.84" y="14490.36" type="priority"/>
    <node id="100048453" x="19057.74" y="14499.25" type="priority"/>
    <node id="100048543" x="19684.64" y="10030.57" type="priority"/>
    <node id="100048549" x="19700.64" y="9748.44" type="priority"/>
    <node id="100048552" x="13900.82" y="7493.99" type="priority"/>
    <node id="100048553" x="13965.74" y="7492.31" type="priority"/>
    <node id="100049103" x="14529.43" y="12596.11" type="priority"/>
    <node id="100049699" x="14784.40" y="10204.03" type="priority"/>
    <node id="100049716" x="14937.33" y="10260.83" type="priority"/>
    <node id="100049718" x="14990.56" y="10260.32" type="priority"/>
    <node id="100049722" x="15031.13" y="10244.04" type="priority"/>
    <node id="100050021" x="19372.22" y="14970.61" type="priority"/>
    <node id="100050023" x="19380.27" y="14971.13" type="priority"/>
    <node id="100050031" x="19496.74" y="14972.52" type="priority"/>
    <node id="100054191" x="19087.42" y="12145.04" type="priority"/>
    <node id="100054234" x="19198.30" y="12227.18" type="priority"/>
    <node id="100054311" x="18578.61" y="12148.90" type="priority"/>
    <node id="100054331" x="19304.19" y="12304.88" type="priority"/>
    <node id="100054571" x="16488.58" y="9777.34" type="priority"/>
    <node id="100054585" x="16362.40" y="9821.53" type="priority"/>
    <node id="100055491" x="14994.69" y="10577.48" type="priority"/>
    <node id="100055493" x="16078.49" y="10508.09" type="priority"/>
    <node id="100055507" x="15953.65" y="10524.91" type="priority"/>
    <node id="100055515" x="15847.90" y="10529.01" type="priority"/>
    <node id="100055543" x="15852.34" y="10477.25" type="priority"/>
    <node id="100055688" x="19196.36" y="15361.77" type="priority"/>
    <node id="100055718" x="19223.27" y="15046.79" type="priority"/>
    <node id="100056120" x="13593.98" y="7213.36" type="priority"/>
    <node id="100056124" x="13508.88" y="7173.72" type="priority"/>
    <node id="100056140" x="13403.81" y="7127.76" type="priority"/>
    <node id="100056145" x="13332.29" y="7127.48" type="priority"/>
    <node id="100056148" x="13280.98" y="7122.66" type="priority"/>
    <node id="100056185" x="13111.05" y="6982.89" type="priority"/>
    <node id="100056259" x="12960.32" y="7300.67" type="priority"/>
    <node id="100056266" x="13252.06" y="7294.98" type="priority"/>
    <node id="100057392" x="19691.33" y="17039.82" type="priority"/>
    <node id="100057424" x="18565.20" y="13948.15" type="priority"/>
    <node id="100057429" x="18577.28" y="13954.46" type="priority"/>
    <node id="100057455" x="16146.88" y="13783.29" type="priority"/>
    <node id="100057480" x="16953.79" y="13760.62" type="priority"/>
    <node id="100057483" x="17006.92" y="13760.07" type="priority"/>
    <node id="100057490" x="17104.96" y="13760.89" type="priority"/>
    <node id="100057514" x="18211.31" y="13762.20" type="priority"/>
    <node id="100057522" x="18282.59" y="13761.96" type="priority"/>
    <node id="100057533" x="18369.26" y="13785.12" type="priority"/>
    <node id="100061041" x="19592.98" y="14725.25" type="priority"/>
    <node id="100061045" x="19735.20" y="14721.99" type="priority"/>
    <node id="100062095" x="16367.96" y="8128.59" type="priority"/>
    <node id="100062101" x="16467.65" y="8133.75" type="priority"/>
    <node id="100062102" x="16531.82" y="8133.13" type="priority"/>
    <node id="100062103" x="16610.79" y="8133.34" type="traffic_light" tl="100062103"/>
    <node id="100062107" x="16691.65" y="8132.93" type="priority"/>
    <node id="100062118" x="16771.99" y="8132.03" type="priority"/>
    <node id="100062124" x="16852.46" y="8131.68" type="priority"/>
    <node id="100062128" x="16931.22" y="8131.52" type="traffic_light" tl="100062128"/>
    <node id="100062133" x="17013.08" y="8132.16" type="priority"/>
    <node id="100062149" x="17453.85" y="8131.96" type="traffic_light" tl="100062149"/>
    <node id="100062160" x="17583.91" y="8132.80" type="priority"/>
    <node id="100062168" x="17747.57" y="8133.19" type="priority"/>
    <node id="100062172" x="17846.38" y="8132.80" type="priority"/>
    <node id="100062176" x="17947.37" y="8132.73" type="priority"/>
    <node id="100062184" x="18152.37" y="8132.70" type="priority"/>
    <node id="100062188" x="18312.39" y="8132.89" type="priority"/>
    <node id="100062190" x="18352.76" y="8132.47" type="priority"/>
    <node id="100062191" x="18418.19" y="8133.25" type="priority"/>
    <node id="100062199" x="18555.90" y="8132.94" type="priority"/>
    <node id="100062216" x="18642.65" y="8133.35" type="priority"/>
    <node id="100062352" x="22886.63" y="8118.05" type="priority"/>
    <node id="100062390" x="17845.50" y="7860.39" type="priority"/>
    <node id="100062393" x="17845.06" y="7832.36" type="priority"/>
    <node id="100062395" x="17844.53" y="7764.90" type="priority"/>
    <node id="100062400" x="17848.37" y="7728.10" type="priority"/>
    <node id="100062416" x="17852.81" y="7518.70" type="priority"/>
    <node id="100062424" x="17852.92" y="7325.82" type="priority"/>
    <node id="100062429" x="19022.44" y="14305.09" type="rail_crossing"/>
    <node id="100062432" x="19099.64" y="14304.60" type="priority"/>
    <node id="100062436" x="19151.54" y="14305.37" type="priority"/>
    <node id="100062443" x="19285.49" y="14306.34" type="priority"/>
    <node id="100062712" x="16934.51" y="8536.70" type="priority"/>
    <node id="100062717" x="17007.41" y="8536.36" type="priority"/>
    <node id="100063341" x="14227.58" y="10031.85" type="priority"/>
    <node id="100063343" x="14224.08" y="9945.46" type="priority"/>
    <node id="100063349" x="14227.27" y="9826.23" type="priority"/>
    <node id="100063920" x="13636.50" y="5790.45" type="priority"/>
    <node id="100063953" x="13703.38" y="5967.67" type="priority"/>
    <node id="100063959" x="13702.44" y="6084.89" type="priority"/>
    <node id="100064110" x="16653.11" y="5677.28" type="priority"/>
    <node id="100064158" x="16476.23" y="5044.51" type="priority"/>
    <node id="100064160" x="16456.03" y="5032.54" type="priority"/>
    <node id="100066596" x="15323.44" y="8716.78" type="priority"/>
    <node id="100066603" x="15321.48" y="8625.84" type="priority"/>
    <node id="100066606" x="15322.19" y="8535.33" type="priority"/>
    <node id="100066612" x="15323.36" y="8440.27" type="priority"/>
    <node id="100066620" x="15317.67" y="8349.90" type="priority"/>
    <node id="100068450" x="14455.61" y="9216.03" type="priority"/>
    <node id="100068457" x="14106.34" y="9217.35" type="priority"/>
    <node id="100069031" x="14736.80" y="9433.80" type="priority"/>
    <node id="100069033" x="14757.33" y="9414.95" type="priority"/>
    <node id="100069037" x="14736.54" y="9348.14" type="priority"/>
    <node id="100069044" x="14706.14" y="9467.18" type="priority"/>
    <node id="100069047" x="14737.95" y="9631.96" type="priority"/>
    <node id="100069050" x="14736.35" y="9478.65" type="priority"/>
    <node id="100069133" x="16838.33" y="4051.70" type="priority"/>
    <node id="100069147" x="16841.80" y="3252.60" type="priority"/>
    <node id="100069990" x="18792.78" y="14535.56" type="priority"/>
    <node id="100070026" x="18932.52" y="14497.23" type="priority"/>
    <node id="100070030" x="17229.32" y="4861.07" type="priority"/>
    <node id="100070043" x="17639.83" y="4859.32" type="priority"/>
    <node id="100070045" x="18045.64" y="4858.94" type="priority"/>
    <node id="100070057" x="18454.20" y="4859.88" type="priority"/>
    <node id="100070086" x="19663.57" y="4863.76" type="priority"/>
    <node id="100070181" x="21174.41" y="4869.32" type="priority"/>
    <node id="100070763" x="17749.44" y="8076.02" type="priority"/>
    <node id="100073122" x="17829.58" y="9667.46" type="priority"/>
    <node id="100073143" x="18045.56" y="9588.04" type="priority"/>
    <node id="100073157" x="18195.60" y="9581.31" type="priority"/>
    <node id="100073730" x="17597.33" y="14123.80" type="priority"/>
    <node id="100073762" x="17658.69" y="13928.40" type="priority"/>
    <node id="100074609" x="16591.34" y="4806.07" type="priority"/>
    <node id="100074612" x="16591.39" y="4948.76" type="priority"/>
    <node id="100075375" x="18656.29" y="7814.78" type="priority"/>
    <node id="100075638" x="17538.64" y="10476.32" type="priority"/>
    <node id="100075640" x="17516.46" y="10498.48" type="priority"/>
    <node id="100075953" x="17537.39" y="6921.84" type="priority"/>
    <node id="100075955" x="17536.12" y="6844.30" type="priority"/>
    <node id="100075962" x="17538.15" y="6760.32" type="priority"/>
    <node id="100075969" x="17609.42" y="10159.86" type="priority"/>
    <node id="100075972" x="17559.54" y="10181.75" type="priority"/>
    <node id="100076981" x="15378.43" y="8807.12" type="priority"/>
    <node id="100076987" x="15528.62" y="8807.44" type="priority"/>
    <node id="100076989" x="13421.67" y="5282.67" type="priority"/>
    <node id="100076993" x="13422.65" y="5391.23" type="priority"/>
    <node id="100077146" x="18176.15" y="12699.62" type="priority"/>
    <node id="100077162" x="18437.89" y="12698.32" type="priority"/>
    <node id="100077167" x="18564.45" y="12695.36" type="priority"/>
    <node id="100077711" x="16928.47" y="6245.18" type="priority"/>
    <node id="100077714" x="17082.33" y="6245.94" type="priority"/>
    <node id="100077803" x="16036.11" y="9535.85" type="priority"/>
    <node id="100077819" x="16039.96" y="9423.09" type="priority"/>
    <node id="100078626" x="14963.47" y="15521.96" type="priority"/>
    <node id="100078633" x="15167.17" y="15525.42" type="priority"/>
    <node id="100078649" x="15716.17" y="9642.54" type="priority"/>
    <node id="100079249" x="18553.46" y="7330.77" type="priority"/>
    <node id="100079266" x="18548.15" y="6518.94" type="priority"/>
    <node id="100079299" x="18543.62" y="5670.25" type="traffic_light" tl="100079299"/>
    <node id="100080524" x="17745.61" y="9184.20" type="priority"/>
    <node id="100080526" x="17897.76" y="9183.43" type="priority"/>