<?xml version="1.0" encoding="UTF-8"?>

<!-- generated on 06/12/19 14:31:44 by Eclipse SUMO netedit Version v1_0_1+0383-8ba62d898b
<configuration xmlns:xsi="http://www.w3.org/2001/XMLSchema-instance" xsi:noNamespaceSchemaLocation="http://sumo.dlr.de/xsd/netconvertConfiguration.xsd">

    <input>
        <sumo-net-file value="Haines_City.net.xml"/>
    </input>

    <output>
        <output-file value="Haines_City.net.xml"/>
        <plain-output-prefix value="C:\sumo-windows10\projects\Haines_City\data\Haines_City"/>
    </output>

    <processing>
        <offset.disable-normalization value="true"/>
        <lefthand value="false"/>
    </processing>

    <junctions>
        <no-turnarounds value="true"/>
        <junctions.corner-detail value="0"/>
        <junctions.limit-turn-speed value="-1"/>
        <rectangular-lane-cut value="false"/>
    </junctions>

    <pedestrian>
        <walkingareas value="false"/>
    </pedestrian>

</configuration>
-->

<edges version="1.0" xmlns:xsi="http://www.w3.org/2001/XMLSchema-instance" xsi:noNamespaceSchemaLocation="http://sumo.dlr.de/xsd/edges_file.xsd">
    <edge id="-11256973" from="99978509" to="99978507" priority="4" type="highway.residential" numLanes="1" speed="13.89" shape="18718.05,8501.11 18588.19,8500.53 18555.58,8500.14" disallow="tram rail_urban rail rail_electric ship"/>
    <edge id="-11256976" from="99978525" to="99978524" priority="4" type="highway.residential" numLanes="1" speed="13.89" disallow="tram rail_urban rail rail_electric ship"/>
    <edge id="-11256984" from="99978582" to="99978581" priority="4" type="highway.residential" numLanes="1" speed="13.89" disallow="tram rail_urban rail rail_electric ship"/>
    <edge id="-11256985" from="99978587" to="99978583" priority="4" type="highway.residential" numLanes="1" speed="13.89" shape="14156.05,8980.89 14156.07,9003.49 14157.25,9077.38 14157.14,9111.28" disallow="tram rail_urban rail rail_electric ship"/>
    <edge id="-11257076" from="99979171" to="99979112" priority="4" type="highway.residential" numLanes="1" speed="13.89" shape="19770.21,15589.60 19771.75,15584.27 19772.32,15579.62 19769.88,15543.62 19766.45,15524.14 19763.76,15515.63 19760.29,15509.22 19757.23,15506.68 19753.99,15505.70 19748.10,15504.85 19743.48,15504.87 19738.78,15506.66 19726.44,15513.82 19716.08,15521.73 19698.86,15533.45 19692.50,15538.46 19689.28,15541.69 19686.85,15547.47 19684.05,15555.90 19680.15,15561.46 19676.43,15565.02 19669.28,15568.71 19649.76,15576.33" disallow="tram rail_urban rail rail_electric ship"/>
    <edge id="-11258112#0" from="99987701" to="99987699" priority="4" type="highway.residential" numLanes="1" speed="13.89" shape="14579.60,9314.41 14554.36,9314.77 14519.78,9314.62" disallow="tram rail_urban rail rail_electric ship"/>
    <edge id="-11258112#1" from="99987703" to="99987701" priority="4" type="highway.residential" numLanes="1" speed="13.89" disallow="tram rail_urban rail rail_electric ship"/>
    <edge id="-11258114" from="99987706" to="99987701" priority="4" type="highway.residential" numLanes="1" speed="13.89" disallow="tram rail_urban rail rail_electric ship"/>
    <edge id="-11258121" from="99987766" to="99987765" priority="4" type="highway.residential" numLanes="1" speed="13.89" disallow="tram rail_urban rail rail_electric ship"/>
    <edge id="-11258304" from="99989083" to="99989080" priority="4" type="highway.residential" numLanes="1" speed="13.89" shape="17978.37,10562.17 17980.44,10581.77 17980.50,10614.67 17978.97,10660.43" disallow="tram rail_urban rail rail_electric ship"/>
    <edge id="-11258492" from="99990465" to="99990458" priority="4" type="highway.residential" numLanes="1" speed="13.89" shape="19019.49,14379.44 19012.77,14391.66 19005.45,14400.23 18996.55,14407.14 18984.89,14412.18 18974.34,14421.21" disallow="tram rail_urban rail rail_electric ship"/>
    <edge id="-11258625#0" from="99991331" to="99991308" priority="4" type="highway.residential" numLanes="1" speed="13.89" shape="15331.34,12587.54 15324.54,12600.87 15323.29,12606.75 15322.85,12615.28 15323.93,12689.72 15323.25,12747.67 15323.48,12753.65 15321.74,12760.08 15318.53,12765.09 15314.72,12768.65 15304.45,12775.80 15294.36,12780.83 15280.34,12785.34 15270.92,12786.94 15202.58,12787.63 14797.26,12790.78" disallow="tram rail_urban rail rail_electric ship"/>
    <edge id="-11258625#1" from="601279480" to="99991331" priority="4" type="highway.residential" numLanes="1" speed="13.89" disallow="tram rail_urban rail rail_electric ship"/>
    <edge id="-11258626#0" from="99991339" to="99991338" priority="2" type="highway.service" numLanes="1" speed="5.56" allow="delivery bicycle pedestrian"/>
    <edge id="-11258626#1" from="99991341" to="99991339" priority="2" type="highway.service" numLanes="1" speed="5.56" allow="delivery bicycle pedestrian"/>
    <edge id="-11258626#2" from="99991343" to="99991341" priority="2" type="highway.service" numLanes="1" speed="5.56" allow="delivery bicycle pedestrian"/>
    <edge id="-11258628#0" from="99991349" to="99991345" priority="2" type="highway.service" numLanes="1" speed="5.56" shape="18113.73,7225.03 18114.07,7176.39 18115.01,7128.64" allow="delivery bicycle pedestrian"/>
    <edge id="-11258628#1" from="99991352" to="99991349" priority="2" type="highway.service" numLanes="1" speed="5.56" allow="delivery bicycle pedestrian"/>
    <edge id="-11258628#2" from="99991354" to="99991352" priority="2" type="highway.service" numLanes="1" speed="5.56" allow="delivery bicycle pedestrian"/>
    <edge id="-11258631#0" from="99991361" to="99991359" priority="2" type="highway.service" numLanes="1" speed="5.56" allow="delivery bicycle pedestrian"/>
    <edge id="-11258631#1" from="99991362" to="99991361" priority="2" type="highway.service" numLanes="1" speed="5.56" allow="delivery bicycle pedestrian"/>
    <edge id="-11258631#2" from="99991363" to="99991362" priority="2" type="highway.service" numLanes="1" speed="5.56" allow="delivery bicycle pedestrian"/>
    <edge id="-11258631#3" from="99991345" to="99991363" priority="2" type="highway.service" numLanes="1" speed="5.56" shape="18115.01,7128.64 18142.12,7128.72 18141.82,7225.22" allow="delivery bicycle pedestrian"/>
    <edge id="-11258631#4" from="99991343" to="99991345" priority="2" type="highway.service" numLanes="1" speed="5.56" allow="delivery bicycle pedestrian"/>
    <edge id="-11258631#5" from="99991365" to="99991343" priority="2" type="highway.service" numLanes="1" speed="5.56" allow="delivery bicycle pedestrian"/>
    <edge id="-11258631#6" from="99991366" to="99991365" priority="2" type="highway.service" numLanes="1" speed="5.56" allow="delivery bicycle pedestrian"/>
    <edge id="-11258631#7" from="382619605" to="99991366" priority="2" type="highway.service" numLanes="1" speed="5.56" allow="delivery bicycle pedestrian"/>
    <edge id="-11258639#0" from="99991399" to="99991388" priority="4" type="highway.residential" numLanes="1" speed="13.89" shape="15864.46,7623.06 15864.19,7588.94 15863.57,7583.96 15861.19,7580.10 15855.19,7578.47 15850.08,7578.16 15793.01,7578.13" disallow="tram rail_urban rail rail_electric ship"/>
    <edge id="-11258639#1" from="99991412" to="99991399" priority="4" type="highway.residential" numLanes="1" speed="13.89" shape="15807.47,7732.48 15808.14,7653.60 15808.61,7649.50 15812.13,7646.82 15819.29,7645.35 15852.99,7645.06 15860.54,7643.69 15863.67,7641.01 15864.46,7623.06" disallow="tram rail_urban rail rail_electric ship"/>
    <edge id="-11258644#0" from="99991417" to="99991415" priority="4" type="highway.residential" numLanes="1" speed="13.89" disallow="tram rail_urban rail rail_electric ship"/>
    <edge id="-11258644#1" from="99991419" to="99991417" priority="4" type="highway.residential" numLanes="1" speed="13.89" disallow="tram rail_urban rail rail_electric ship"/>
    <edge id="-11258644#2" from="99991446" to="99991419" priority="4" type="highway.residential" numLanes="1" speed="13.89" shape="17681.22,8163.44 17657.54,8163.67 17652.35,8165.13 17647.55,8169.37 17645.91,8174.69 17645.92,8293.67 17648.32,8300.75 17653.54,8304.60 17658.75,8305.35 17705.31,8305.34 17710.51,8304.09 17715.70,8301.08 17716.58,8298.63 17717.43,8293.09 17717.02,8250.33" disallow="tram rail_urban rail rail_electric ship"/>
    <edge id="-11258644#3" from="99991415" to="99991446" priority="4" type="highway.residential" numLanes="1" speed="13.89" shape="17716.94,8216.21 17716.83,8174.00 17714.54,8168.70 17709.12,8163.85 17681.22,8163.44" disallow="tram rail_urban rail rail_electric ship"/>
    <edge id="-11258822#0" from="99992703" to="99992700" priority="4" type="highway.residential" numLanes="1" speed="13.89" shape="14683.84,9300.12 14676.31,9307.81 14675.15,9346.59" disallow="tram rail_urban rail rail_electric ship"/>
    <edge id="-11258822#1" from="99992704" to="99992703" priority="4" type="highway.residential" numLanes="1" speed="13.89" disallow="tram rail_urban rail rail_electric ship"/>
    <edge id="-11258822#10" from="99992729" to="99992727" priority="4" type="highway.residential" numLanes="1" speed="13.89" disallow="tram rail_urban rail rail_electric ship"/>
    <edge id="-11258822#11" from="99992731" to="99992729" priority="4" type="highway.residential" numLanes="1" speed="13.89" disallow="tram rail_urban rail rail_electric ship"/>
    <edge id="-11258822#12" from="99992733" to="99992731" priority="4" type="highway.residential" numLanes="1" speed="13.89" disallow="tram rail_urban rail rail_electric ship"/>
    <edge id="-11258822#13" from="99992734" to="99992733" priority="4" type="highway.residential" numLanes="1" speed="13.89" disallow="tram rail_urban rail rail_electric ship"/>
    <edge id="-11258822#14" from="99992735" to="99992734" priority="4" type="highway.residential" numLanes="1" speed="13.89" disallow="tram rail_urban rail rail_electric ship"/>
    <edge id="-11258822#15" from="99987766" to="99992735" priority="4" type="highway.residential" numLanes="1" speed="13.89" disallow="tram rail_urban rail rail_electric ship"/>
    <edge id="-11258822#16" from="99987706" to="99987766" priority="4" type="highway.residential" numLanes="1" speed="13.89" shape="14579.57,9272.09 14548.83,9272.37 14543.62,9271.07 14540.06,9267.98 14537.79,9264.67 14539.16,9246.28" disallow="tram rail_urban rail rail_electric ship"/>
    <edge id="-11258822#17" from="99992704" to="99987706" priority="4" type="highway.residential" numLanes="1" speed="13.89" disallow="tram rail_urban rail rail_electric ship"/>
    <edge id="-11258822#18" from="99992750" to="99992704" priority="4" type="highway.residential" numLanes="1" speed="13.89" shape="14791.26,9275.95 14719.76,9276.22 14714.65,9276.69 14709.45,9277.72 14704.25,9277.97 14691.97,9277.37 14682.70,9271.66" disallow="tram rail_urban rail rail_electric ship"/>
    <edge id="-11258822#2" from="99987765" to="99992704" priority="4" type="highway.residential" numLanes="1" speed="13.89" shape="14688.56,9246.03 14688.07,9265.65 14682.70,9271.66" disallow="tram rail_urban rail rail_electric ship"/>
    <edge id="-11258822#3" from="99992707" to="99987765" priority="4" type="highway.residential" numLanes="1" speed="13.89" disallow="tram rail_urban rail rail_electric ship"/>
    <edge id="-11258822#4" from="99992708" to="99992707" priority="4" type="highway.residential" numLanes="1" speed="13.89" disallow="tram rail_urban rail rail_electric ship"/>
    <edge id="-11258822#5" from="99992709" to="99992708" priority="4" type="highway.residential" numLanes="1" speed="13.89" disallow="tram rail_urban rail rail_electric ship"/>
    <edge id="-11258822#6" from="99992711" to="99992709" priority="4" type="highway.residential" numLanes="1" speed="13.89" shape="14686.84,9107.56 14687.36,9132.04 14687.52,9142.46" disallow="tram rail_urban rail rail_electric ship"/>
    <edge id="-11258822#7" from="99992713" to="99992711" priority="4" type="highway.residential" numLanes="1" speed="13.89" disallow="tram rail_urban rail rail_electric ship"/>
    <edge id="-11258822#8" from="99992715" to="99992713" priority="4" type="highway.residential" numLanes="1" speed="13.89" disallow="tram rail_urban rail rail_electric ship"/>
    <edge id="-11258822#9" from="99992727" to="99992715" priority="4" type="highway.residential" numLanes="1" speed="13.89" shape="14535.91,9023.17 14534.94,8987.51 14541.19,8981.71 14577.53,8981.52 14676.06,8982.10 14682.26,8984.62 14683.74,8986.27 14685.44,8991.47 14686.01,9024.37" disallow="tram rail_urban rail rail_electric ship"/>
    <edge id="-11258824#0" from="99992759" to="99992758" priority="4" type="highway.residential" numLanes="1" speed="13.89" disallow="tram rail_urban rail rail_electric ship"/>
    <edge id="-11258824#1" from="99992703" to="99992759" priority="4" type="highway.residential" numLanes="1" speed="13.89" shape="14683.84,9300.12 14694.45,9300.40 14698.99,9306.02 14700.04,9317.32" disallow="tram rail_urban rail rail_electric ship"/>
    <edge id="-11259412" from="99996914" to="99996905" priority="4" type="highway.residential" numLanes="1" speed="13.89" shape="14879.92,4035.75 14890.80,4013.31 14895.00,4007.64 14904.41,4003.38 14908.22,3999.04 14913.44,3981.95" disallow="tram rail_urban rail rail_electric ship"/>
    <edge id="-11259415#0" from="cluster_99996917_99996941" to="99996915" priority="4" type="highway.residential" numLanes="1" speed="13.89" shape="14857.57,3990.34 14851.04,4019.06" disallow="tram rail_urban rail rail_electric ship"/>
    <edge id="-11259415#1" from="99996905" to="cluster_99996917_99996941" priority="4" type="highway.residential" numLanes="1" speed="13.89" shape="14913.44,3981.95 14878.26,3981.70 14871.38,3982.18 14865.88,3983.53 14857.57,3990.34" disallow="tram rail_urban rail rail_electric ship"/>
    <edge id="-11259415#2" from="99996926" to="99996905" priority="4" type="highway.residential" numLanes="1" speed="13.89" shape="14935.18,3986.71 14926.81,3983.54 14917.96,3982.04 14913.44,3981.95" disallow="tram rail_urban rail rail_electric ship"/>
    <edge id="-11259415#3" from="99996927" to="99996926" priority="4" type="highway.residential" numLanes="1" speed="13.89" disallow="tram rail_urban rail rail_electric ship"/>
    <edge id="-11259418" from="cluster_99996917_99996941" to="99996930" priority="4" type="highway.residential" numLanes="1" speed="13.89" shape="14842.73,3990.64 14844.65,3962.60 14846.09,3957.16 14850.49,3952.04 14853.23,3950.81 14857.35,3950.01 14893.63,3952.81 14909.36,3954.39 14914.37,3953.26 14917.59,3949.91 14915.89,3926.22" disallow="tram rail_urban rail rail_electric ship"/>
    <edge id="-11259425#0" from="99996948" to="99996946" priority="4" type="highway.residential" numLanes="1" speed="13.89" disallow="tram rail_urban rail rail_electric ship"/>
    <edge id="-11259425#1" from="99996930" to="99996948" priority="4" type="highway.residential" numLanes="1" speed="13.89" shape="14915.89,3926.22 14893.38,3924.78 14882.47,3924.51 14846.71,3925.03 14810.45,3924.78 14763.88,3926.36 14737.45,3928.60" disallow="tram rail_urban rail rail_electric ship"/>
    <edge id="-11259425#2" from="99996926" to="99996930" priority="4" type="highway.residential" numLanes="1" speed="13.89" shape="14935.18,3986.71 14949.07,3956.84 14950.50,3947.64 14950.07,3941.43 14947.09,3934.69 14945.21,3932.60 14941.07,3929.52 14915.89,3926.22" disallow="tram rail_urban rail rail_electric ship"/>
    <edge id="-11259425#3" from="99997036" to="99996926" priority="4" type="highway.residential" numLanes="1" speed="13.89" shape="14758.15,4051.79 14883.31,4064.87 14888.81,4063.84 14892.92,4059.61 14926.13,4004.37 14935.18,3986.71" disallow="tram rail_urban rail rail_electric ship"/>
    <edge id="-11259496" from="3708636387" to="99997459" priority="4" type="highway.residential" numLanes="1" speed="13.89" shape="15544.23,9710.36 15546.55,9698.93 15550.74,9691.49 15552.19,9687.38 15552.99,9672.20 15555.64,9652.24 15558.93,9642.70 15561.46,9639.36 15570.45,9630.01" disallow="tram rail_urban rail rail_electric ship"/>
    <edge id="-11259570" from="99992735" to="99992707" priority="4" type="highway.residential" numLanes="1" speed="13.89" shape="14538.92,9219.58 14563.88,9220.33 14688.71,9219.56" disallow="tram rail_urban rail rail_electric ship"/>
    <edge id="-11259572" from="99992734" to="99992708" priority="4" type="highway.residential" numLanes="1" speed="13.89" shape="14537.74,9181.47 14579.18,9180.81 14687.92,9180.90" disallow="tram rail_urban rail rail_electric ship"/>
    <edge id="-11259574" from="99992709" to="99992733" priority="4" type="highway.residential" numLanes="1" speed="13.89" shape="14687.52,9142.46 14667.38,9141.46 14583.98,9141.01 14536.93,9141.26" disallow="tram rail_urban rail rail_electric ship"/>
    <edge id="-11259589" from="99998211" to="99998202" priority="4" type="highway.residential" numLanes="1" speed="13.89" shape="13739.60,7491.97 13734.39,7492.67 13709.73,7490.70 13684.18,7490.50 13667.00,7491.81 13615.00,7503.61 13598.04,7511.57" disallow="tram rail_urban rail rail_electric ship"/>
    <edge id="-11259755#0" from="99979171" to="99999233" priority="4" type="highway.residential" numLanes="1" speed="13.89" disallow="tram rail_urban rail rail_electric ship"/>
    <edge id="-11259755#1" from="99999233" to="99979171" priority="4" type="highway.residential" numLanes="1" speed="13.89" shape="19779.41,15604.51 19786.53,15615.00 19795.29,15620.16 19806.79,15621.88 19819.06,15621.82 19828.75,15617.34 19832.73,15606.91 19833.67,15598.15 19827.61,15585.00 19820.41,15578.16 19809.32,15578.22 19784.01,15582.00 19770.21,15589.60" disallow="tram rail_urban rail rail_electric ship"/>
    <edge id="-11259920#0" from="100000380" to="100000378" priority="2" type="highway.service" numLanes="1" speed="5.56" allow="delivery bicycle pedestrian"/>
    <edge id="-11259920#1" from="100000382" to="100000380" priority="2" type="highway.service" numLanes="1" speed="5.56" allow="delivery bicycle pedestrian"/>
    <edge id="-11259920#2" from="100000384" to="100000382" priority="2" type="highway.service" numLanes="1" speed="5.56" allow="delivery bicycle pedestrian"/>
    <edge id="-11259920#3" from="100000396" to="100000384" priority="2" type="highway.service" numLanes="1" speed="5.56" shape="19910.42,11918.87 19863.68,11918.10 19857.49,11917.36 19855.22,11915.93 19853.94,11914.38 19852.64,11910.40 19851.93,11906.31 19850.93,11882.71" allow="delivery bicycle pedestrian"/>
    <edge id="-11259920#4" from="100000407" to="100000396" priority="2" type="highway.service" numLanes="1" speed="5.56" shape="20042.00,11876.69 20042.16,11909.81 20041.31,11915.24 20039.64,11917.02 20034.45,11918.71 19956.77,11918.42 19910.42,11918.87" allow="delivery bicycle pedestrian"/>
    <edge id="-11260020" from="100000791" to="100000763" priority="4" type="highway.residential" numLanes="1" speed="13.89" shape="12805.13,7450.63 12782.89,7443.11 12777.68,7442.58 12689.56,7442.07 12684.44,7441.10 12681.78,7438.90 12679.70,7435.25 12679.37,7428.61 12679.56,7392.38 12680.12,7387.28 12689.13,7381.03 12777.15,7381.54 12787.56,7380.71 12803.06,7376.19 12805.12,7375.96 12808.16,7374.62 12832.59,7370.60" disallow="tram rail_urban rail rail_electric ship"/>
    <edge id="-11260112" from="100001558" to="100001555" priority="4" type="highway.residential" numLanes="1" speed="13.89" disallow="tram rail_urban rail rail_electric ship"/>
    <edge id="-11260113" from="100001564" to="100001562" priority="4" type="highway.residential" numLanes="1" speed="13.89" disallow="tram rail_urban rail rail_electric ship"/>
    <edge id="-11260114" from="100001570" to="100001568" priority="4" type="highway.residential" numLanes="1" speed="13.89" disallow="tram rail_urban rail rail_electric ship"/>
    <edge id="-11260153#0" from="99991349" to="99991363" priority="2" type="highway.service" numLanes="1" speed="5.56" allow="delivery bicycle pedestrian"/>
    <edge id="-11260153#1" from="99991341" to="99991349" priority="2" type="highway.service" numLanes="1" speed="5.56" allow="delivery bicycle pedestrian"/>
    <edge id="-11260153#2" from="100001821" to="99991341" priority="2" type="highway.service" numLanes="1" speed="5.56" allow="delivery bicycle pedestrian"/>
    <edge id="-11260155#0" from="100001850" to="100001849" priority="2" type="highway.service" numLanes="1" speed="5.56" allow="delivery bicycle pedestrian"/>
    <edge id="-11260155#1" from="100001827" to="100001850" priority="2" type="highway.service" numLanes="1" speed="5.56" allow="delivery bicycle pedestrian"/>
    <edge id="-11260158#0" from="99991352" to="99991362" priority="2" type="highway.service" numLanes="1" speed="5.56" allow="delivery bicycle pedestrian"/>
    <edge id="-11260158#1" from="99991339" to="99991352" priority="2" type="highway.service" numLanes="1" speed="5.56" allow="delivery bicycle pedestrian"/>
    <edge id="-11260158#2" from="100001841" to="99991339" priority="2" type="highway.service" numLanes="1" speed="5.56" allow="delivery bicycle pedestrian"/>
    <edge id="-11260158#3" from="100001850" to="100001841" priority="2" type="highway.service" numLanes="1" speed="5.56" allow="delivery bicycle pedestrian"/>
    <edge id="-11260158#4" from="100001856" to="100001850" priority="2" type="highway.service" numLanes="1" speed="5.56" allow="delivery bicycle pedestrian"/>
    <edge id="-11260158#5" from="100001857" to="100001856" priority="2" type="highway.service" numLanes="1" speed="5.56" allow="delivery bicycle pedestrian"/>
    <edge id="-11260158#6" from="100001860" to="100001857" priority="2" type="highway.service" numLanes="1" speed="5.56" allow="delivery bicycle pedestrian"/>
    <edge id="-11260160#0" from="100001863" to="100001861" priority="2" type="highway.service" numLanes="1" speed="5.56" allow="delivery bicycle pedestrian"/>
    <edge id="-11260160#1" from="100001865" to="100001863" priority="2" type="highway.service" numLanes="1" speed="5.56" allow="delivery bicycle pedestrian"/>
    <edge id="-11260162#0" from="100001856" to="100001867" priority="2" type="highway.service" numLanes="1" speed="5.56" allow="delivery bicycle pedestrian"/>
    <edge id="-11260162#1" from="100001868" to="100001856" priority="2" type="highway.service" numLanes="1" speed="5.56" allow="delivery bicycle pedestrian"/>
    <edge id="-11260162#2" from="100001870" to="100001868" priority="2" type="highway.service" numLanes="1" speed="5.56" allow="delivery bicycle pedestrian"/>
    <edge id="-11260164#0" from="100001874" to="100001872" priority="2" type="highway.service" numLanes="1" speed="5.56" allow="delivery bicycle pedestrian"/>
    <edge id="-11260164#1" from="100001878" to="100001874" priority="2" type="highway.service" numLanes="1" speed="5.56" shape="17846.62,7070.39 17881.89,7071.10 17896.92,7070.80" allow="delivery bicycle pedestrian"/>
    <edge id="-11260166#0" from="100001882" to="100001880" priority="2" type="highway.service" numLanes="1" speed="5.56" allow="delivery bicycle pedestrian"/>
    <edge id="-11260166#1" from="382619605" to="100001882" priority="2" type="highway.service" numLanes="1" speed="5.56" allow="delivery bicycle pedestrian"/>
    <edge id="-11260166#2" from="100001870" to="382619605" priority="2" type="highway.service" numLanes="1" speed="5.56" allow="delivery bicycle pedestrian"/>
    <edge id="-11260166#3" from="100001835" to="100001870" priority="2" type="highway.service" numLanes="1" speed="5.56" allow="delivery bicycle pedestrian"/>
    <edge id="-11260219#0" from="cluster_1638615881_1638615882_1638615884" to="100002177" priority="4" type="highway.residential" numLanes="1" speed="13.89" shape="14924.37,13863.27 14951.88,13862.88 15052.63,13861.15 15086.41,13861.31 15093.89,13865.03 15096.48,13872.89 15095.72,13932.93 15092.52,13940.04 15084.19,13943.08 14918.27,13945.73" disallow="tram rail_urban rail rail_electric ship"/>
    <edge id="-11260222#1" from="100002242" to="cluster_1638615881_1638615882_1638615884" priority="4" type="highway.residential" numLanes="1" speed="13.89" shape="14835.90,13947.27 14788.19,13948.41 14779.83,13944.69 14776.84,13936.84 14776.70,13874.25 14780.40,13867.14 14788.34,13864.99 14886.32,13863.81 14911.94,13863.45" disallow="tram rail_urban rail rail_electric ship"/>
    <edge id="-11260222#2" from="100002177" to="100002242" priority="4" type="highway.residential" numLanes="1" speed="13.89" disallow="tram rail_urban rail rail_electric ship"/>
    <edge id="-11260433" from="100003799" to="100003782" priority="4" type="highway.residential" numLanes="1" speed="13.89" shape="18210.15,10424.29 18206.35,10451.12 18202.59,10484.71 18200.78,10494.47 18197.28,10503.13 18191.35,10513.90 18168.73,10546.70 18164.24,10552.48 18158.37,10557.27 18148.68,10563.42" disallow="tram rail_urban rail rail_electric ship"/>
    <edge id="-11260462#0" from="100003981" to="100003966" priority="4" type="highway.residential" numLanes="1" speed="13.89" shape="19635.54,15692.96 19614.97,15703.80 19612.72,15704.59 19604.50,15709.84 19584.03,15719.91 19580.99,15720.92 19578.84,15722.81 19573.36,15725.61 19553.10,15737.79 19537.63,15745.62 19507.96,15761.72" disallow="tram rail_urban rail rail_electric ship"/>
    <edge id="-11260462#1" from="100003982" to="100003981" priority="4" type="highway.residential" numLanes="1" speed="13.89" disallow="tram rail_urban rail rail_electric ship"/>
    <edge id="-11260465" from="100003996" to="100003993" priority="4" type="highway.residential" numLanes="1" speed="13.89" shape="19591.40,15560.68 19618.80,15544.03 19638.74,15532.38" disallow="tram rail_urban rail rail_electric ship"/>
    <edge id="-11260469#0" from="100004011" to="100004001" priority="4" type="highway.residential" numLanes="1" speed="13.89" shape="19589.64,15443.14 19560.90,15447.71 19536.77,15452.38 19525.20,15453.87 19497.22,15454.68 19453.45,15456.66" disallow="tram rail_urban rail rail_electric ship"/>
    <edge id="-11260469#1" from="100004015" to="100004011" priority="4" type="highway.residential" numLanes="1" speed="13.89" disallow="tram rail_urban rail rail_electric ship"/>
    <edge id="-11260516" from="100004298" to="100004297" priority="4" type="highway.residential" numLanes="1" speed="13.89" disallow="tram rail_urban rail rail_electric ship"/>
    <edge id="-11260531" from="100004387" to="100004383" priority="4" type="highway.residential" numLanes="1" speed="13.89" disallow="tram rail_urban rail rail_electric ship"/>
    <edge id="-11260867" from="100006607" to="100006602" priority="4" type="highway.residential" numLanes="1" speed="13.89" shape="13504.02,8537.61 13472.74,8531.70 13448.53,8526.64 13403.01,8528.51" disallow="tram rail_urban rail rail_electric ship"/>
    <edge id="-11261068#0" from="100007760" to="100007757" priority="4" type="highway.residential" numLanes="1" speed="13.89" shape="15714.62,10078.59 15714.64,10081.70 15715.95,10087.45 15740.15,10133.52" disallow="tram rail_urban rail rail_electric ship"/>
    <edge id="-11261068#1" from="100007788" to="100007760" priority="4" type="highway.residential" numLanes="1" speed="13.89" shape="15643.66,9861.94 15699.55,9919.03 15702.41,9921.45 15705.87,9926.42 15707.67,9931.40 15707.99,9937.05 15706.79,10007.18 15707.21,10012.72 15714.67,10031.51 15716.18,10038.59 15715.10,10074.60 15714.62,10078.59" disallow="tram rail_urban rail rail_electric ship"/>
    <edge id="-11261127" from="99992731" to="99992711" priority="4" type="highway.residential" numLanes="1" speed="13.89" disallow="tram rail_urban rail rail_electric ship"/>
    <edge id="-11261144#0" from="100008339" to="100008334" priority="4" type="highway.residential" numLanes="1" speed="13.89" shape="13455.17,8285.17 13437.70,8287.26 13428.57,8288.42" disallow="tram rail_urban rail rail_electric ship"/>
    <edge id="-11261144#1" from="100008341" to="100008339" priority="4" type="highway.residential" numLanes="1" speed="13.89" disallow="tram rail_urban rail rail_electric ship"/>
    <edge id="-11261511" from="100011164" to="100011163" priority="4" type="highway.residential" numLanes="1" speed="13.89" disallow="tram rail_urban rail rail_electric ship"/>
    <edge id="-11261519#0" from="100001857" to="382619605" priority="2" type="highway.service" numLanes="1" speed="5.56" shape="17948.80,7267.73 17948.93,7175.56 17949.47,7127.59" allow="delivery bicycle pedestrian"/>
    <edge id="-11261519#1" from="100011228" to="100001857" priority="2" type="highway.service" numLanes="1" speed="5.56" allow="delivery bicycle pedestrian"/>
    <edge id="-11261520#0" from="100001863" to="100011232" priority="2" type="highway.service" numLanes="1" speed="5.56" allow="delivery bicycle pedestrian"/>
    <edge id="-11261520#1" from="100011234" to="100001863" priority="2" type="highway.service" numLanes="1" speed="5.56" allow="delivery bicycle pedestrian"/>
    <edge id="-11261520#2" from="100001874" to="100011234" priority="2" type="highway.service" numLanes="1" speed="5.56" allow="delivery bicycle pedestrian"/>
    <edge id="-11261520#3" from="100001882" to="100001874" priority="2" type="highway.service" numLanes="1" speed="5.56" allow="delivery bicycle pedestrian"/>
    <edge id="-11261520#4" from="100001860" to="100001882" priority="2" type="highway.service" numLanes="1" speed="5.56" allow="delivery bicycle pedestrian"/>
    <edge id="-11261520#5" from="100011236" to="100001860" priority="2" type="highway.service" numLanes="1" speed="5.56" allow="delivery bicycle pedestrian"/>
    <edge id="-11261521#0" from="100001861" to="100011239" priority="2" type="highway.service" numLanes="1" speed="5.56" allow="delivery bicycle pedestrian"/>
    <edge id="-11261521#1" from="100011241" to="100001861" priority="2" type="highway.service" numLanes="1" speed="5.56" allow="delivery bicycle pedestrian"/>
    <edge id="-11261521#2" from="100001878" to="100011241" priority="2" type="highway.service" numLanes="1" speed="5.56" allow="delivery bicycle pedestrian"/>
    <edge id="-11261521#3" from="100001880" to="100001878" priority="2" type="highway.service" numLanes="1" speed="5.56" allow="delivery bicycle pedestrian"/>