<configuration>
	<input>
		<net-file value="Haines_City.100.net.xml" />
		<route-files value="Haines_City.100.rou.xml" />
	</input>
	<time>
		<begin value="0" />
		<end value="3000000" />
	</time>
	<settings>
		<grid-dimension rows="121" cols="82" />
	</settings>
</configuration>