<edges>
	<edge id="road0" from="cell0_35" to="cell1_35" priority="1" numLanes="1" speed="25.000000"/>
	<edge id="road1" from="cell0_45" to="cell0_45" priority="1" numLanes="1" speed="25.000000"/>
	<edge id="road2" from="cell0_45" to="cell1_45" priority="1" numLanes="1" speed="25.000000"/>
	<edge id="road3" from="cell0_68" to="cell1_68" priority="1" numLanes="1" speed="25.000000"/>
	<edge id="road4" from="cell0_71" to="cell1_71" priority="1" numLanes="1" speed="25.000000"/>
	<edge id="road5" from="cell1_24" to="cell1_24" priority="1" numLanes="1" speed="25.000000"/>
	<edge id="road6" from="cell1_24" to="cell2_24" priority="1" numLanes="1" speed="25.000000"/>
	<edge id="road7" from="cell1_24" to="cell1_25" priority="1" numLanes="1" speed="25.000000"/>
	<edge id="road8" from="cell1_25" to="cell1_25" priority="1" numLanes="1" speed="25.000000"/>
	<edge id="road9" from="cell1_25" to="cell1_26" priority="1" numLanes="1" speed="25.000000"/>
	<edge id="road10" from="cell1_25" to="cell2_25" priority="1" numLanes="1" speed="25.000000"/>
	<edge id="road11" from="cell1_25" to="cell1_24" priority="1" numLanes="1" speed="25.000000"/>
	<edge id="road12" from="cell1_26" to="cell1_26" priority="1" numLanes="1" speed="25.000000"/>
	<edge id="road13" from="cell1_26" to="cell1_27" priority="1" numLanes="1" speed="25.000000"/>
	<edge id="road14" from="cell1_26" to="cell2_26" priority="1" numLanes="1" speed="25.000000"/>
	<edge id="road15" from="cell1_26" to="cell1_25" priority="1" numLanes="1" speed="25.000000"/>
	<edge id="road16" from="cell1_27" to="cell1_27" priority="1" numLanes="1" speed="25.000000"/>
	<edge id="road17" from="cell1_27" to="cell2_27" priority="1" numLanes="1" speed="25.000000"/>
	<edge id="road18" from="cell1_27" to="cell1_26" priority="1" numLanes="1" speed="25.000000"/>
	<edge id="road19" from="cell1_28" to="cell0_28" priority="1" numLanes="1" speed="25.000000"/>
	<edge id="road20" from="cell1_35" to="cell0_35" priority="1" numLanes="1" speed="25.000000"/>
	<edge id="road21" from="cell1_35" to="cell2_35" priority="1" numLanes="1" speed="25.000000"/>
	<edge id="road22" from="cell1_44" to="cell1_44" priority="1" numLanes="1" speed="25.000000"/>
	<edge id="road23" from="cell1_44" to="cell2_44" priority="1" numLanes="1" speed="25.000000"/>
	<edge id="road24" from="cell1_45" to="cell1_45" priority="1" numLanes="1" speed="25.000000"/>
	<edge id="road25" from="cell1_45" to="cell2_45" priority="1" numLanes="1" speed="25.000000"/>
	<edge id="road26" from="cell1_45" to="cell0_45" priority="1" numLanes="1" speed="25.000000"/>
	<edge id="road27" from="cell1_47" to="cell1_47" priority="1" numLanes="1" speed="25.000000"/>
	<edge id="road28" from="cell1_47" to="cell2_47" priority="1" numLanes="1" speed="25.000000"/>
	<edge id="road29" from="cell1_68" to="cell1_68" priority="1" numLanes="1" speed="25.000000"/>
	<edge id="road30" from="cell1_68" to="cell2_68" priority="1" numLanes="1" speed="25.000000"/>
	<edge id="road31" from="cell1_68" to="cell0_68" priority="1" numLanes="1" speed="25.000000"/>
	<edge id="road32" from="cell1_69" to="cell1_69" priority="1" numLanes="1" speed="25.000000"/>
	<edge id="road33" from="cell1_69" to="cell1_70" priority="1" numLanes="1" speed="25.000000"/>
	<edge id="road34" from="cell1_70" to="cell1_70" priority="1" numLanes="1" speed="25.000000"/>
	<edge id="road35" from="cell1_70" to="cell1_69" priority="1" numLanes="1" speed="25.000000"/>
	<edge id="road36" from="cell1_70" to="cell1_71" priority="1" numLanes="1" speed="25.000000"/>
	<edge id="road37" from="cell1_70" to="cell2_70" priority="1" numLanes="1" speed="25.000000"/>
	<edge id="road38" from="cell1_71" to="cell1_70" priority="1" numLanes="1" speed="25.000000"/>
	<edge id="road39" from="cell1_71" to="cell1_71" priority="1" numLanes="1" speed="25.000000"/>
	<edge id="road40" from="cell1_71" to="cell0_71" priority="1" numLanes="1" speed="25.000000"/>
	<edge id="road41" from="cell1_71" to="cell2_71" priority="1" numLanes="1" speed="25.000000"/>
	<edge id="road42" from="cell2_24" to="cell3_25" priority="1" numLanes="1" speed="25.000000"/>
	<edge id="road43" from="cell2_24" to="cell2_24" priority="1" numLanes="1" speed="25.000000"/>
	<edge id="road44" from="cell2_24" to="cell2_25" priority="1" numLanes="1" speed="25.000000"/>
	<edge id="road45" from="cell2_24" to="cell1_24" priority="1" numLanes="1" speed="25.000000"/>
	<edge id="road46" from="cell2_24" to="cell3_24" priority="1" numLanes="1" speed="25.000000"/>
	<edge id="road47" from="cell2_25" to="cell2_25" priority="1" numLanes="1" speed="25.000000"/>
	<edge id="road48" from="cell2_25" to="cell1_25" priority="1" numLanes="1" speed="25.000000"/>
	<edge id="road49" from="cell2_25" to="cell3_25" priority="1" numLanes="1" speed="25.000000"/>
	<edge id="road50" from="cell2_25" to="cell2_24" priority="1" numLanes="1" speed="25.000000"/>
	<edge id="road51" from="cell2_26" to="cell3_26" priority="1" numLanes="1" speed="25.000000"/>
	<edge id="road52" from="cell2_26" to="cell1_26" priority="1" numLanes="1" speed="25.000000"/>
	<edge id="road53" from="cell2_27" to="cell3_27" priority="1" numLanes="1" speed="25.000000"/>
	<edge id="road54" from="cell2_27" to="cell2_27" priority="1" numLanes="1" speed="25.000000"/>
	<edge id="road55" from="cell2_27" to="cell1_27" priority="1" numLanes="1" speed="25.000000"/>
	<edge id="road56" from="cell2_27" to="cell2_28" priority="1" numLanes="1" speed="25.000000"/>
	<edge id="road57" from="cell2_28" to="cell2_27" priority="1" numLanes="1" speed="25.000000"/>
	<edge id="road58" from="cell2_28" to="cell1_28" priority="1" numLanes="1" speed="25.000000"/>
	<edge id="road59" from="cell2_35" to="cell1_35" priority="1" numLanes="1" speed="25.000000"/>
	<edge id="road60" from="cell2_35" to="cell3_35" priority="1" numLanes="1" speed="25.000000"/>
	<edge id="road61" from="cell2_44" to="cell2_44" priority="1" numLanes="1" speed="25.000000"/>
	<edge id="road62" from="cell2_44" to="cell3_44" priority="1" numLanes="1" speed="25.000000"/>
	<edge id="road63" from="cell2_44" to="cell2_45" priority="1" numLanes="1" speed="25.000000"/>
	<edge id="road64" from="cell2_44" to="cell1_44" priority="1" numLanes="1" speed="25.000000"/>
	<edge id="road65" from="cell2_45" to="cell2_45" priority="1" numLanes="1" speed="25.000000"/>
	<edge id="road66" from="cell2_45" to="cell2_44" priority="1" numLanes="1" speed="25.000000"/>
	<edge id="road67" from="cell2_45" to="cell3_45" priority="1" numLanes="1" speed="25.000000"/>
	<edge id="road68" from="cell2_45" to="cell1_45" priority="1" numLanes="1" speed="25.000000"/>
	<edge id="road69" from="cell2_47" to="cell2_47" priority="1" numLanes="1" speed="25.000000"/>
	<edge id="road70" from="cell2_47" to="cell3_47" priority="1" numLanes="1" speed="25.000000"/>
	<edge id="road71" from="cell2_47" to="cell1_47" priority="1" numLanes="1" speed="25.000000"/>
	<edge id="road72" from="cell2_65" to="cell2_65" priority="1" numLanes="1" speed="25.000000"/>
	<edge id="road73" from="cell2_65" to="cell2_66" priority="1" numLanes="1" speed="25.000000"/>
	<edge id="road74" from="cell2_66" to="cell2_66" priority="1" numLanes="1" speed="25.000000"/>
	<edge id="road75" from="cell2_66" to="cell2_67" priority="1" numLanes="1" speed="25.000000"/>
	<edge id="road76" from="cell2_66" to="cell2_65" priority="1" numLanes="1" speed="25.000000"/>
	<edge id="road77" from="cell2_67" to="cell2_67" priority="1" numLanes="1" speed="25.000000"/>
	<edge id="road78" from="cell2_67" to="cell2_68" priority="1" numLanes="1" speed="25.000000"/>
	<edge id="road79" from="cell2_67" to="cell3_67" priority="1" numLanes="1" speed="25.000000"/>
	<edge id="road80" from="cell2_67" to="cell2_66" priority="1" numLanes="1" speed="25.000000"/>
	<edge id="road81" from="cell2_68" to="cell2_68" priority="1" numLanes="1" speed="25.000000"/>
	<edge id="road82" from="cell2_68" to="cell3_68" priority="1" numLanes="1" speed="25.000000"/>
	<edge id="road83" from="cell2_68" to="cell2_67" priority="1" numLanes="1" speed="25.000000"/>
	<edge id="road84" from="cell2_68" to="cell1_68" priority="1" numLanes="1" speed="25.000000"/>
	<edge id="road85" from="cell2_69" to="cell2_69" priority="1" numLanes="1" speed="25.000000"/>
	<edge id="road86" from="cell2_69" to="cell3_69" priority="1" numLanes="1" speed="25.000000"/>
	<edge id="road87" from="cell2_69" to="cell2_70" priority="1" numLanes="1" speed="25.000000"/>
	<edge id="road88" from="cell2_70" to="cell2_70" priority="1" numLanes="1" speed="25.000000"/>
	<edge id="road89" from="cell2_70" to="cell1_70" priority="1" numLanes="1" speed="25.000000"/>
	<edge id="road90" from="cell2_70" to="cell2_69" priority="1" numLanes="1" speed="25.000000"/>
	<edge id="road91" from="cell2_70" to="cell2_71" priority="1" numLanes="1" speed="25.000000"/>
	<edge id="road92" from="cell2_70" to="cell3_71" priority="1" numLanes="1" speed="25.000000"/>
	<edge id="road93" from="cell2_70" to="cell3_70" priority="1" numLanes="1" speed="25.000000"/>
	<edge id="road94" from="cell2_71" to="cell2_70" priority="1" numLanes="1" speed="25.000000"/>
	<edge id="road95" from="cell2_71" to="cell1_71" priority="1" numLanes="1" speed="25.000000"/>
	<edge id="road96" from="cell2_72" to="cell2_72" priority="1" numLanes="1" speed="25.000000"/>
	<edge id="road97" from="cell2_72" to="cell3_72" priority="1" numLanes="1" speed="25.000000"/>
	<edge id="road98" from="cell3_24" to="cell3_24" priority="1" numLanes="1" speed="25.000000"/>
	<edge id="road99" from="cell3_24" to="cell2_24" priority="1" numLanes="1" speed="25.000000"/>
	<edge id="road100" from="cell3_24" to="cell3_25" priority="1" numLanes="1" speed="25.000000"/>
	<edge id="road101" from="cell3_24" to="cell4_24" priority="1" numLanes="1" speed="25.000000"/>
	<edge id="road102" from="cell3_25" to="cell3_24" priority="1" numLanes="1" speed="25.000000"/>
	<edge id="road103" from="cell3_25" to="cell2_25" priority="1" numLanes="1" speed="25.000000"/>
	<edge id="road104" from="cell3_25" to="cell3_26" priority="1" numLanes="1" speed="25.000000"/>
	<edge id="road105" from="cell3_25" to="cell2_24" priority="1" numLanes="1" speed="25.000000"/>
	<edge id="road106" from="cell3_26" to="cell3_26" priority="1" numLanes="1" speed="25.000000"/>
	<edge id="road107" from="cell3_26" to="cell3_25" priority="1" numLanes="1" speed="25.000000"/>
	<edge id="road108" from="cell3_26" to="cell4_26" priority="1" numLanes="1" speed="25.000000"/>
	<edge id="road109" from="cell3_26" to="cell3_27" priority="1" numLanes="1" speed="25.000000"/>
	<edge id="road110" from="cell3_26" to="cell2_26" priority="1" numLanes="1" speed="25.000000"/>
	<edge id="road111" from="cell3_27" to="cell3_27" priority="1" numLanes="1" speed="25.000000"/>
	<edge id="road112" from="cell3_27" to="cell3_26" priority="1" numLanes="1" speed="25.000000"/>
	<edge id="road113" from="cell3_27" to="cell2_27" priority="1" numLanes="1" speed="25.000000"/>
	<edge id="road114" from="cell3_27" to="cell4_27" priority="1" numLanes="1" speed="25.000000"/>
	<edge id="road115" from="cell3_28" to="cell2_28" priority="1" numLanes="1" speed="25.000000"/>
	<edge id="road116" from="cell3_35" to="cell2_35" priority="1" numLanes="1" speed="25.000000"/>
	<edge id="road117" from="cell3_35" to="cell4_35" priority="1" numLanes="1" speed="25.000000"/>
	<edge id="road118" from="cell3_42" to="cell4_42" priority="1" numLanes="1" speed="25.000000"/>
	<edge id="road119" from="cell3_42" to="cell3_42" priority="1" numLanes="1" speed="25.000000"/>
	<edge id="road120" from="cell3_42" to="cell3_43" priority="1" numLanes="1" speed="25.000000"/>
	<edge id="road121" from="cell3_43" to="cell4_43" priority="1" numLanes="1" speed="25.000000"/>
	<edge id="road122" from="cell3_43" to="cell3_42" priority="1" numLanes="1" speed="25.000000"/>
	<edge id="road123" from="cell3_43" to="cell3_44" priority="1" numLanes="1" speed="25.000000"/>
	<edge id="road124" from="cell3_44" to="cell3_44" priority="1" numLanes="1" speed="25.000000"/>
	<edge id="road125" from="cell3_44" to="cell4_44" priority="1" numLanes="1" speed="25.000000"/>
	<edge id="road126" from="cell3_44" to="cell3_43" priority="1" numLanes="1" speed="25.000000"/>
	<edge id="road127" from="cell3_44" to="cell2_44" priority="1" numLanes="1" speed="25.000000"/>
	<edge id="road128" from="cell3_45" to="cell3_45" priority="1" numLanes="1" speed="25.000000"/>
	<edge id="road129" from="cell3_45" to="cell4_45" priority="1" numLanes="1" speed="25.000000"/>
	<edge id="road130" from="cell3_45" to="cell3_46" priority="1" numLanes="1" speed="25.000000"/>
	<edge id="road131" from="cell3_45" to="cell2_45" priority="1" numLanes="1" speed="25.000000"/>
	<edge id="road132" from="cell3_46" to="cell4_46" priority="1" numLanes="1" speed="25.000000"/>
	<edge id="road133" from="cell3_46" to="cell3_45" priority="1" numLanes="1" speed="25.000000"/>
	<edge id="road134" from="cell3_46" to="cell3_47" priority="1" numLanes="1" speed="25.000000"/>
	<edge id="road135" from="cell3_47" to="cell3_46" priority="1" numLanes="1" speed="25.000000"/>
	<edge id="road136" from="cell3_47" to="cell4_47" priority="1" numLanes="1" speed="25.000000"/>
	<edge id="road137" from="cell3_47" to="cell3_47" priority="1" numLanes="1" speed="25.000000"/>
	<edge id="road138" from="cell3_47" to="cell2_47" priority="1" numLanes="1" speed="25.000000"/>
	<edge id="road139" from="cell3_64" to="cell3_64" priority="1" numLanes="1" speed="25.000000"/>
	<edge id="road140" from="cell3_64" to="cell3_65" priority="1" numLanes="1" speed="25.000000"/>
	<edge id="road141" from="cell3_65" to="cell3_65" priority="1" numLanes="1" speed="25.000000"/>
	<edge id="road142" from="cell3_65" to="cell3_64" priority="1" numLanes="1" speed="25.000000"/>
	<edge id="road143" from="cell3_65" to="cell4_65" priority="1" numLanes="1" speed="25.000000"/>
	<edge id="road144" from="cell3_67" to="cell3_67" priority="1" numLanes="1" speed="25.000000"/>
	<edge id="road145" from="cell3_67" to="cell2_67" priority="1" numLanes="1" speed="25.000000"/>
	<edge id="road146" from="cell3_68" to="cell3_68" priority="1" numLanes="1" speed="25.000000"/>
	<edge id="road147" from="cell3_68" to="cell4_67" priority="1" numLanes="1" speed="25.000000"/>
	<edge id="road148" from="cell3_68" to="cell2_68" priority="1" numLanes="1" speed="25.000000"/>
	<edge id="road149" from="cell3_69" to="cell3_69" priority="1" numLanes="1" speed="25.000000"/>
	<edge id="road150" from="cell3_69" to="cell3_70" priority="1" numLanes="1" speed="25.000000"/>
	<edge id="road151" from="cell3_69" to="cell2_69" priority="1" numLanes="1" speed="25.000000"/>
	<edge id="road152" from="cell3_70" to="cell3_70" priority="1" numLanes="1" speed="25.000000"/>
	<edge id="road153" from="cell3_70" to="cell2_70" priority="1" numLanes="1" speed="25.000000"/>
	<edge id="road154" from="cell3_70" to="cell3_69" priority="1" numLanes="1" speed="25.000000"/>
	<edge id="road155" from="cell3_70" to="cell4_70" priority="1" numLanes="1" speed="25.000000"/>
	<edge id="road156" from="cell3_71" to="cell3_71" priority="1" numLanes="1" speed="25.000000"/>
	<edge id="road157" from="cell3_71" to="cell2_70" priority="1" numLanes="1" speed="25.000000"/>
	<edge id="road158" from="cell3_71" to="cell3_72" priority="1" numLanes="1" speed="25.000000"/>
	<edge id="road159" from="cell3_72" to="cell3_72" priority="1" numLanes="1" speed="25.000000"/>
	<edge id="road160" from="cell3_72" to="cell3_71" priority="1" numLanes="1" speed="25.000000"/>
	<edge id="road161" from="cell3_72" to="cell2_72" priority="1" numLanes="1" speed="25.000000"/>
	<edge id="road162" from="cell4_13" to="cell4_13" priority="1" numLanes="1" speed="25.000000"/>
	<edge id="road163" from="cell4_13" to="cell4_14" priority="1" numLanes="1" speed="25.000000"/>
	<edge id="road164" from="cell4_13" to="cell5_13" priority="1" numLanes="1" speed="25.000000"/>
	<edge id="road165" from="cell4_14" to="cell4_15" priority="1" numLanes="1" speed="25.000000"/>
	<edge id="road166" from="cell4_14" to="cell4_13" priority="1" numLanes="1" speed="25.000000"/>
	<edge id="road167" from="cell4_15" to="cell4_14" priority="1" numLanes="1" speed="25.000000"/>
	<edge id="road168" from="cell4_24" to="cell4_24" priority="1" numLanes="1" speed="25.000000"/>
	<edge id="road169" from="cell4_24" to="cell3_24" priority="1" numLanes="1" speed="25.000000"/>
	<edge id="road170" from="cell4_24" to="cell4_25" priority="1" numLanes="1" speed="25.000000"/>
	<edge id="road171" from="cell4_25" to="cell4_24" priority="1" numLanes="1" speed="25.000000"/>
	<edge id="road172" from="cell4_25" to="cell4_26" priority="1" numLanes="1" speed="25.000000"/>
	<edge id="road173" from="cell4_26" to="cell4_25" priority="1" numLanes="1" speed="25.000000"/>
	<edge id="road174" from="cell4_26" to="cell4_26" priority="1" numLanes="1" speed="25.000000"/>
	<edge id="road175" from="cell4_26" to="cell3_26" priority="1" numLanes="1" speed="25.000000"/>
	<edge id="road176" from="cell4_27" to="cell5_27" priority="1" numLanes="1" speed="25.000000"/>
	<edge id="road177" from="cell4_28" to="cell3_28" priority="1" numLanes="1" speed="25.000000"/>
	<edge id="road178" from="cell4_35" to="cell3_35" priority="1" numLanes="1" speed="25.000000"/>
	<edge id="road179" from="cell4_35" to="cell5_35" priority="1" numLanes="1" speed="25.000000"/>
	<edge id="road180" from="cell4_42" to="cell4_42" priority="1" numLanes="1" speed="25.000000"/>
	<edge id="road181" from="cell4_42" to="cell4_43" priority="1" numLanes="1" speed="25.000000"/>
	<edge id="road182" from="cell4_42" to="cell3_42" priority="1" numLanes="1" speed="25.000000"/>
	<edge id="road183" from="cell4_43" to="cell4_42" priority="1" numLanes="1" speed="25.000000"/>
	<edge id="road184" from="cell4_43" to="cell3_43" priority="1" numLanes="1" speed="25.000000"/>
	<edge id="road185" from="cell4_43" to="cell4_44" priority="1" numLanes="1" speed="25.000000"/>
	<edge id="road186" from="cell4_44" to="cell4_43" priority="1" numLanes="1" speed="25.000000"/>
	<edge id="road187" from="cell4_44" to="cell4_44" priority="1" numLanes="1" speed="25.000000"/>
	<edge id="road188" from="cell4_44" to="cell3_44" priority="1" numLanes="1" speed="25.000000"/>
	<edge id="road189" from="cell4_44" to="cell5_44" priority="1" numLanes="1" speed="25.000000"/>
	<edge id="road190" from="cell4_45" to="cell4_45" priority="1" numLanes="1" speed="25.000000"/>
	<edge id="road191" from="cell4_45" to="cell5_45" priority="1" numLanes="1" speed="25.000000"/>
	<edge id="road192" from="cell4_45" to="cell3_45" priority="1" numLanes="1" speed="25.000000"/>
	<edge id="road193" from="cell4_46" to="cell5_46" priority="1" numLanes="1" speed="25.000000"/>
	<edge id="road194" from="cell4_46" to="cell4_46" priority="1" numLanes="1" speed="25.000000"/>
	<edge id="road195" from="cell4_46" to="cell4_47" priority="1" numLanes="1" speed="25.000000"/>
	<edge id="road196" from="cell4_46" to="cell3_46" priority="1" numLanes="1" speed="25.000000"/>
	<edge id="road197" from="cell4_47" to="cell4_47" priority="1" numLanes="1" speed="25.000000"/>
	<edge id="road198" from="cell4_47" to="cell4_46" priority="1" numLanes="1" speed="25.000000"/>
	<edge id="road199" from="cell4_47" to="cell3_47" priority="1" numLanes="1" speed="25.000000"/>
	<edge id="road200" from="cell4_65" to="cell4_65" priority="1" numLanes="1" speed="25.000000"/>
	<edge id="road201" from="cell4_65" to="cell3_65" priority="1" numLanes="1" speed="25.000000"/>
	<edge id="road202" from="cell4_65" to="cell5_65" priority="1" numLanes="1" speed="25.000000"/>
	<edge id="road203" from="cell4_67" to="cell4_67" priority="1" numLanes="1" speed="25.000000"/>
	<edge id="road204" from="cell4_67" to="cell5_67" priority="1" numLanes="1" speed="25.000000"/>
	<edge id="road205" from="cell4_67" to="cell3_68" priority="1" numLanes="1" speed="25.000000"/>
	<edge id="road206" from="cell4_68" to="cell4_69" priority="1" numLanes="1" speed="25.000000"/>
	<edge id="road207" from="cell4_69" to="cell4_69" priority="1" numLanes="1" speed="25.000000"/>
	<edge id="road208" from="cell4_69" to="cell4_68" priority="1" numLanes="1" speed="25.000000"/>
	<edge id="road209" from="cell4_69" to="cell4_70" priority="1" numLanes="1" speed="25.000000"/>
	<edge id="road210" from="cell4_70" to="cell4_70" priority="1" numLanes="1" speed="25.000000"/>
	<edge id="road211" from="cell4_70" to="cell4_69" priority="1" numLanes="1" speed="25.000000"/>
	<edge id="road212" from="cell4_70" to="cell3_70" priority="1" numLanes="1" speed="25.000000"/>
	<edge id="road213" from="cell4_70" to="cell5_69" priority="1" numLanes="1" speed="25.000000"/>
	<edge id="road214" from="cell5_13" to="cell4_13" priority="1" numLanes="1" speed="25.000000"/>
	<edge id="road215" from="cell5_13" to="cell6_13" priority="1" numLanes="1" speed="25.000000"/>
	<edge id="road216" from="cell5_27" to="cell6_27" priority="1" numLanes="1" speed="25.000000"/>
	<edge id="road217" from="cell5_28" to="cell4_28" priority="1" numLanes="1" speed="25.000000"/>
	<edge id="road218" from="cell5_35" to="cell4_35" priority="1" numLanes="1" speed="25.000000"/>
	<edge id="road219" from="cell5_35" to="cell6_35" priority="1" numLanes="1" speed="25.000000"/>
	<edge id="road220" from="cell5_42" to="cell5_42" priority="1" numLanes="1" speed="25.000000"/>
	<edge id="road221" from="cell5_42" to="cell6_42" priority="1" numLanes="1" speed="25.000000"/>
	<edge id="road222" from="cell5_42" to="cell5_43" priority="1" numLanes="1" speed="25.000000"/>
	<edge id="road223" from="cell5_43" to="cell5_42" priority="1" numLanes="1" speed="25.000000"/>
	<edge id="road224" from="cell5_43" to="cell6_43" priority="1" numLanes="1" speed="25.000000"/>
	<edge id="road225" from="cell5_43" to="cell5_44" priority="1" numLanes="1" speed="25.000000"/>
	<edge id="road226" from="cell5_44" to="cell5_44" priority="1" numLanes="1" speed="25.000000"/>
	<edge id="road227" from="cell5_44" to="cell4_44" priority="1" numLanes="1" speed="25.000000"/>
	<edge id="road228" from="cell5_44" to="cell5_43" priority="1" numLanes="1" speed="25.000000"/>
	<edge id="road229" from="cell5_44" to="cell6_44" priority="1" numLanes="1" speed="25.000000"/>
	<edge id="road230" from="cell5_45" to="cell5_45" priority="1" numLanes="1" speed="25.000000"/>
	<edge id="road231" from="cell5_45" to="cell6_45" priority="1" numLanes="1" speed="25.000000"/>
	<edge id="road232" from="cell5_45" to="cell5_46" priority="1" numLanes="1" speed="25.000000"/>
	<edge id="road233" from="cell5_45" to="cell6_44" priority="1" numLanes="1" speed="25.000000"/>
	<edge id="road234" from="cell5_45" to="cell4_45" priority="1" numLanes="1" speed="25.000000"/>
	<edge id="road235" from="cell5_46" to="cell5_45" priority="1" numLanes="1" speed="25.000000"/>
	<edge id="road236" from="cell5_46" to="cell5_46" priority="1" numLanes="1" speed="25.000000"/>
	<edge id="road237" from="cell5_46" to="cell5_47" priority="1" numLanes="1" speed="25.000000"/>
	<edge id="road238" from="cell5_46" to="cell4_46" priority="1" numLanes="1" speed="25.000000"/>
	<edge id="road239" from="cell5_47" to="cell6_47" priority="1" numLanes="1" speed="25.000000"/>
	<edge id="road240" from="cell5_47" to="cell5_47" priority="1" numLanes="1" speed="25.000000"/>
	<edge id="road241" from="cell5_47" to="cell5_46" priority="1" numLanes="1" speed="25.000000"/>
	<edge id="road242" from="cell5_65" to="cell4_65" priority="1" numLanes="1" speed="25.000000"/>
	<edge id="road243" from="cell5_65" to="cell5_65" priority="1" numLanes="1" speed="25.000000"/>
	<edge id="road244" from="cell5_65" to="cell5_66" priority="1" numLanes="1" speed="25.000000"/>
	<edge id="road245" from="cell5_65" to="cell6_65" priority="1" numLanes="1" speed="25.000000"/>
	<edge id="road246" from="cell5_66" to="cell5_66" priority="1" numLanes="1" speed="25.000000"/>
	<edge id="road247" from="cell5_66" to="cell5_65" priority="1" numLanes="1" speed="25.000000"/>
	<edge id="road248" from="cell5_66" to="cell6_66" priority="1" numLanes="1" speed="25.000000"/>
	<edge id="road249" from="cell5_66" to="cell5_67" priority="1" numLanes="1" speed="25.000000"/>
	<edge id="road250" from="cell5_67" to="cell5_66" priority="1" numLanes="1" speed="25.000000"/>
	<edge id="road251" from="cell5_67" to="cell5_67" priority="1" numLanes="1" speed="25.000000"/>
	<edge id="road252" from="cell5_67" to="cell6_67" priority="1" numLanes="1" speed="25.000000"/>
	<edge id="road253" from="cell5_67" to="cell4_67" priority="1" numLanes="1" speed="25.000000"/>
	<edge id="road254" from="cell5_69" to="cell6_69" priority="1" numLanes="1" speed="25.000000"/>
	<edge id="road255" from="cell5_70" to="cell4_70" priority="1" numLanes="1" speed="25.000000"/>
	<edge id="road256" from="cell6_13" to="cell5_13" priority="1" numLanes="1" speed="25.000000"/>
	<edge id="road257" from="cell6_13" to="cell7_13" priority="1" numLanes="1" speed="25.000000"/>
	<edge id="road258" from="cell6_22" to="cell6_22" priority="1" numLanes="1" speed="25.000000"/>
	<edge id="road259" from="cell6_22" to="cell7_22" priority="1" numLanes="1" speed="25.000000"/>
	<edge id="road260" from="cell6_27" to="cell7_27" priority="1" numLanes="1" speed="25.000000"/>
	<edge id="road261" from="cell6_28" to="cell5_28" priority="1" numLanes="1" speed="25.000000"/>
	<edge id="road262" from="cell6_35" to="cell5_35" priority="1" numLanes="1" speed="25.000000"/>
	<edge id="road263" from="cell6_35" to="cell7_35" priority="1" numLanes="1" speed="25.000000"/>
	<edge id="road264" from="cell6_42" to="cell7_42" priority="1" numLanes="1" speed="25.000000"/>
	<edge id="road265" from="cell6_42" to="cell5_42" priority="1" numLanes="1" speed="25.000000"/>
	<edge id="road266" from="cell6_43" to="cell6_43" priority="1" numLanes="1" speed="25.000000"/>
	<edge id="road267" from="cell6_43" to="cell6_44" priority="1" numLanes="1" speed="25.000000"/>
	<edge id="road268" from="cell6_43" to="cell5_43" priority="1" numLanes="1" speed="25.000000"/>
	<edge id="road269" from="cell6_43" to="cell7_43" priority="1" numLanes="1" speed="25.000000"/>
	<edge id="road270" from="cell6_44" to="cell6_44" priority="1" numLanes="1" speed="25.000000"/>
	<edge id="road271" from="cell6_44" to="cell6_45" priority="1" numLanes="1" speed="25.000000"/>
	<edge id="road272" from="cell6_44" to="cell5_44" priority="1" numLanes="1" speed="25.000000"/>
	<edge id="road273" from="cell6_44" to="cell6_43" priority="1" numLanes="1" speed="25.000000"/>
	<edge id="road274" from="cell6_44" to="cell7_44" priority="1" numLanes="1" speed="25.000000"/>
	<edge id="road275" from="cell6_44" to="cell5_45" priority="1" numLanes="1" speed="25.000000"/>
	<edge id="road276" from="cell6_45" to="cell6_45" priority="1" numLanes="1" speed="25.000000"/>
	<edge id="road277" from="cell6_45" to="cell6_46" priority="1" numLanes="1" speed="25.000000"/>
	<edge id="road278" from="cell6_45" to="cell5_45" priority="1" numLanes="1" speed="25.000000"/>
	<edge id="road279" from="cell6_45" to="cell6_44" priority="1" numLanes="1" speed="25.000000"/>
	<edge id="road280" from="cell6_46" to="cell6_46" priority="1" numLanes="1" speed="25.000000"/>
	<edge id="road281" from="cell6_46" to="cell6_47" priority="1" numLanes="1" speed="25.000000"/>
	<edge id="road282" from="cell6_46" to="cell6_45" priority="1" numLanes="1" speed="25.000000"/>
	<edge id="road283" from="cell6_47" to="cell6_47" priority="1" numLanes="1" speed="25.000000"/>
	<edge id="road284" from="cell6_47" to="cell6_46" priority="1" numLanes="1" speed="25.000000"/>
	<edge id="road285" from="cell6_47" to="cell5_47" priority="1" numLanes="1" speed="25.000000"/>
	<edge id="road286" from="cell6_60" to="cell6_60" priority="1" numLanes="1" speed="25.000000"/>
	<edge id="road287" from="cell6_60" to="cell7_60" priority="1" numLanes="1" speed="25.000000"/>
	<edge id="road288" from="cell6_65" to="cell5_65" priority="1" numLanes="1" speed="25.000000"/>
	<edge id="road289" from="cell6_65" to="cell7_65" priority="1" numLanes="1" speed="25.000000"/>
	<edge id="road290" from="cell6_66" to="cell5_66" priority="1" numLanes="1" speed="25.000000"/>
	<edge id="road291" from="cell6_66" to="cell7_66" priority="1" numLanes="1" speed="25.000000"/>
	<edge id="road292" from="cell6_67" to="cell6_67" priority="1" numLanes="1" speed="25.000000"/>
	<edge id="road293" from="cell6_67" to="cell7_66" priority="1" numLanes="1" speed="25.000000"/>
	<edge id="road294" from="cell6_67" to="cell6_68" priority="1" numLanes="1" speed="25.000000"/>
	<edge id="road295" from="cell6_67" to="cell5_67" priority="1" numLanes="1" speed="25.000000"/>
	<edge id="road296" from="cell6_68" to="cell6_68" priority="1" numLanes="1" speed="25.000000"/>
	<edge id="road297" from="cell6_68" to="cell6_67" priority="1" numLanes="1" speed="25.000000"/>
	<edge id="road298" from="cell6_68" to="cell7_68" priority="1" numLanes="1" speed="25.000000"/>
	<edge id="road299" from="cell6_68" to="cell6_69" priority="1" numLanes="1" speed="25.000000"/>
	<edge id="road300" from="cell6_69" to="cell6_69" priority="1" numLanes="1" speed="25.000000"/>
	<edge id="road301" from="cell6_69" to="cell6_68" priority="1" numLanes="1" speed="25.000000"/>
	<edge id="road302" from="cell6_69" to="cell5_70" priority="1" numLanes="1" speed="25.000000"/>
	<edge id="road303" from="cell6_69" to="cell6_70" priority="1" numLanes="1" speed="25.000000"/>
	<edge id="road304" from="cell6_69" to="cell7_69" priority="1" numLanes="1" speed="25.000000"/>
	<edge id="road305" from="cell6_70" to="cell6_69" priority="1" numLanes="1" speed="25.000000"/>
	<edge id="road306" from="cell6_70" to="cell7_70" priority="1" numLanes="1" speed="25.000000"/>
	<edge id="road307" from="cell6_71" to="cell6_71" priority="1" numLanes="1" speed="25.000000"/>
	<edge id="road308" from="cell6_71" to="cell7_70" priority="1" numLanes="1" speed="25.000000"/>
	<edge id="road309" from="cell7_13" to="cell6_13" priority="1" numLanes="1" speed="25.000000"/>
	<edge id="road310" from="cell7_13" to="cell8_13" priority="1" numLanes="1" speed="25.000000"/>
	<edge id="road311" from="cell7_22" to="cell7_22" priority="1" numLanes="1" speed="25.000000"/>
	<edge id="road312" from="cell7_22" to="cell6_22" priority="1" numLanes="1" speed="25.000000"/>