<nodes>
	<node id="cell0_0" x="12609.070000" y="15824.240000" type="priority"/>
	<node id="cell0_1" x="12709.070000" y="15824.240000" type="priority"/>
	<node id="cell0_2" x="12809.070000" y="15824.240000" type="priority"/>
	<node id="cell0_3" x="12909.070000" y="15824.240000" type="priority"/>
	<node id="cell0_4" x="13009.070000" y="15824.240000" type="priority"/>
	<node id="cell0_5" x="13109.070000" y="15824.240000" type="priority"/>
	<node id="cell0_6" x="13209.070000" y="15824.240000" type="priority"/>
	<node id="cell0_7" x="13309.070000" y="15824.240000" type="priority"/>
	<node id="cell0_8" x="13409.070000" y="15824.240000" type="priority"/>
	<node id="cell0_9" x="13509.070000" y="15824.240000" type="priority"/>
	<node id="cell0_10" x="13609.070000" y="15824.240000" type="priority"/>
	<node id="cell0_11" x="13709.070000" y="15824.240000" type="priority"/>
	<node id="cell0_12" x="13809.070000" y="15824.240000" type="priority"/>
	<node id="cell0_13" x="13909.070000" y="15824.240000" type="priority"/>
	<node id="cell0_14" x="14009.070000" y="15824.240000" type="priority"/>
	<node id="cell0_15" x="14109.070000" y="15824.240000" type="priority"/>
	<node id="cell0_16" x="14209.070000" y="15824.240000" type="priority"/>
	<node id="cell0_17" x="14309.070000" y="15824.240000" type="priority"/>
	<node id="cell0_18" x="14409.070000" y="15824.240000" type="priority"/>
	<node id="cell0_19" x="14509.070000" y="15824.240000" type="priority"/>
	<node id="cell0_20" x="14609.070000" y="15824.240000" type="priority"/>
	<node id="cell0_21" x="14709.070000" y="15824.240000" type="priority"/>
	<node id="cell0_22" x="14809.070000" y="15824.240000" type="priority"/>
	<node id="cell0_23" x="14909.070000" y="15824.240000" type="priority"/>
	<node id="cell0_24" x="15009.070000" y="15824.240000" type="priority"/>
	<node id="cell0_25" x="15109.070000" y="15824.240000" type="priority"/>
	<node id="cell0_26" x="15209.070000" y="15824.240000" type="priority"/>
	<node id="cell0_27" x="15309.070000" y="15824.240000" type="priority"/>
	<node id="cell0_28" x="15409.070000" y="15824.240000" type="priority"/>
	<node id="cell0_29" x="15509.070000" y="15824.240000" type="priority"/>
	<node id="cell0_30" x="15609.070000" y="15824.240000" type="priority"/>
	<node id="cell0_31" x="15709.070000" y="15824.240000" type="priority"/>
	<node id="cell0_32" x="15809.070000" y="15824.240000" type="priority"/>
	<node id="cell0_33" x="15909.070000" y="15824.240000" type="priority"/>
	<node id="cell0_34" x="16009.070000" y="15824.240000" type="priority"/>
	<node id="cell0_35" x="16109.070000" y="15824.240000" type="priority"/>
	<node id="cell0_36" x="16209.070000" y="15824.240000" type="priority"/>
	<node id="cell0_37" x="16309.070000" y="15824.240000" type="priority"/>
	<node id="cell0_38" x="16409.070000" y="15824.240000" type="priority"/>
	<node id="cell0_39" x="16509.070000" y="15824.240000" type="priority"/>
	<node id="cell0_40" x="16609.070000" y="15824.240000" type="priority"/>
	<node id="cell0_41" x="16709.070000" y="15824.240000" type="priority"/>
	<node id="cell0_42" x="16809.070000" y="15824.240000" type="priority"/>
	<node id="cell0_43" x="16909.070000" y="15824.240000" type="priority"/>
	<node id="cell0_44" x="17009.070000" y="15824.240000" type="priority"/>
	<node id="cell0_45" x="17109.070000" y="15824.240000" type="priority"/>
	<node id="cell0_46" x="17209.070000" y="15824.240000" type="priority"/>
	<node id="cell0_47" x="17309.070000" y="15824.240000" type="priority"/>
	<node id="cell0_48" x="17409.070000" y="15824.240000" type="priority"/>
	<node id="cell0_49" x="17509.070000" y="15824.240000" type="priority"/>
	<node id="cell0_50" x="17609.070000" y="15824.240000" type="priority"/>
	<node id="cell0_51" x="17709.070000" y="15824.240000" type="priority"/>
	<node id="cell0_52" x="17809.070000" y="15824.240000" type="priority"/>
	<node id="cell0_53" x="17909.070000" y="15824.240000" type="priority"/>
	<node id="cell0_54" x="18009.070000" y="15824.240000" type="priority"/>
	<node id="cell0_55" x="18109.070000" y="15824.240000" type="priority"/>
	<node id="cell0_56" x="18209.070000" y="15824.240000" type="priority"/>
	<node id="cell0_57" x="18309.070000" y="15824.240000" type="priority"/>
	<node id="cell0_58" x="18409.070000" y="15824.240000" type="priority"/>
	<node id="cell0_59" x="18509.070000" y="15824.240000" type="priority"/>
	<node id="cell0_60" x="18609.070000" y="15824.240000" type="priority"/>
	<node id="cell0_61" x="18709.070000" y="15824.240000" type="priority"/>
	<node id="cell0_62" x="18809.070000" y="15824.240000" type="priority"/>
	<node id="cell0_63" x="18909.070000" y="15824.240000" type="priority"/>
	<node id="cell0_64" x="19009.070000" y="15824.240000" type="priority"/>
	<node id="cell0_65" x="19109.070000" y="15824.240000" type="priority"/>
	<node id="cell0_66" x="19209.070000" y="15824.240000" type="priority"/>
	<node id="cell0_67" x="19309.070000" y="15824.240000" type="priority"/>
	<node id="cell0_68" x="19409.070000" y="15824.240000" type="priority"/>
	<node id="cell0_69" x="19509.070000" y="15824.240000" type="priority"/>
	<node id="cell0_70" x="19609.070000" y="15824.240000" type="priority"/>
	<node id="cell0_71" x="19709.070000" y="15824.240000" type="priority"/>
	<node id="cell0_72" x="19809.070000" y="15824.240000" type="priority"/>
	<node id="cell0_73" x="19909.070000" y="15824.240000" type="priority"/>
	<node id="cell0_74" x="20009.070000" y="15824.240000" type="priority"/>
	<node id="cell0_75" x="20109.070000" y="15824.240000" type="priority"/>
	<node id="cell0_76" x="20209.070000" y="15824.240000" type="priority"/>
	<node id="cell0_77" x="20309.070000" y="15824.240000" type="priority"/>
	<node id="cell0_78" x="20409.070000" y="15824.240000" type="priority"/>
	<node id="cell0_79" x="20509.070000" y="15824.240000" type="priority"/>
	<node id="cell0_80" x="20609.070000" y="15824.240000" type="priority"/>
	<node id="cell0_81" x="20709.070000" y="15824.240000" type="priority"/>
	<node id="cell1_0" x="12609.070000" y="15724.240000" type="priority"/>
	<node id="cell1_1" x="12709.070000" y="15724.240000" type="priority"/>
	<node id="cell1_2" x="12809.070000" y="15724.240000" type="priority"/>
	<node id="cell1_3" x="12909.070000" y="15724.240000" type="priority"/>
	<node id="cell1_4" x="13009.070000" y="15724.240000" type="priority"/>
	<node id="cell1_5" x="13109.070000" y="15724.240000" type="priority"/>
	<node id="cell1_6" x="13209.070000" y="15724.240000" type="priority"/>
	<node id="cell1_7" x="13309.070000" y="15724.240000" type="priority"/>
	<node id="cell1_8" x="13409.070000" y="15724.240000" type="priority"/>
	<node id="cell1_9" x="13509.070000" y="15724.240000" type="priority"/>
	<node id="cell1_10" x="13609.070000" y="15724.240000" type="priority"/>
	<node id="cell1_11" x="13709.070000" y="15724.240000" type="priority"/>
	<node id="cell1_12" x="13809.070000" y="15724.240000" type="priority"/>
	<node id="cell1_13" x="13909.070000" y="15724.240000" type="priority"/>
	<node id="cell1_14" x="14009.070000" y="15724.240000" type="priority"/>
	<node id="cell1_15" x="14109.070000" y="15724.240000" type="priority"/>
	<node id="cell1_16" x="14209.070000" y="15724.240000" type="priority"/>
	<node id="cell1_17" x="14309.070000" y="15724.240000" type="priority"/>
	<node id="cell1_18" x="14409.070000" y="15724.240000" type="priority"/>
	<node id="cell1_19" x="14509.070000" y="15724.240000" type="priority"/>
	<node id="cell1_20" x="14609.070000" y="15724.240000" type="priority"/>
	<node id="cell1_21" x="14709.070000" y="15724.240000" type="priority"/>
	<node id="cell1_22" x="14809.070000" y="15724.240000" type="priority"/>
	<node id="cell1_23" x="14909.070000" y="15724.240000" type="priority"/>
	<node id="cell1_24" x="15009.070000" y="15724.240000" type="priority"/>
	<node id="cell1_25" x="15109.070000" y="15724.240000" type="priority"/>
	<node id="cell1_26" x="15209.070000" y="15724.240000" type="priority"/>
	<node id="cell1_27" x="15309.070000" y="15724.240000" type="priority"/>
	<node id="cell1_28" x="15409.070000" y="15724.240000" type="priority"/>
	<node id="cell1_29" x="15509.070000" y="15724.240000" type="priority"/>
	<node id="cell1_30" x="15609.070000" y="15724.240000" type="priority"/>
	<node id="cell1_31" x="15709.070000" y="15724.240000" type="priority"/>
	<node id="cell1_32" x="15809.070000" y="15724.240000" type="priority"/>
	<node id="cell1_33" x="15909.070000" y="15724.240000" type="priority"/>
	<node id="cell1_34" x="16009.070000" y="15724.240000" type="priority"/>
	<node id="cell1_35" x="16109.070000" y="15724.240000" type="priority"/>
	<node id="cell1_36" x="16209.070000" y="15724.240000" type="priority"/>
	<node id="cell1_37" x="16309.070000" y="15724.240000" type="priority"/>
	<node id="cell1_38" x="16409.070000" y="15724.240000" type="priority"/>
	<node id="cell1_39" x="16509.070000" y="15724.240000" type="priority"/>
	<node id="cell1_40" x="16609.070000" y="15724.240000" type="priority"/>
	<node id="cell1_41" x="16709.070000" y="15724.240000" type="priority"/>
	<node id="cell1_42" x="16809.070000" y="15724.240000" type="priority"/>
	<node id="cell1_43" x="16909.070000" y="15724.240000" type="priority"/>
	<node id="cell1_44" x="17009.070000" y="15724.240000" type="priority"/>
	<node id="cell1_45" x="17109.070000" y="15724.240000" type="priority"/>
	<node id="cell1_46" x="17209.070000" y="15724.240000" type="priority"/>
	<node id="cell1_47" x="17309.070000" y="15724.240000" type="priority"/>
	<node id="cell1_48" x="17409.070000" y="15724.240000" type="priority"/>
	<node id="cell1_49" x="17509.070000" y="15724.240000" type="priority"/>
	<node id="cell1_50" x="17609.070000" y="15724.240000" type="priority"/>
	<node id="cell1_51" x="17709.070000" y="15724.240000" type="priority"/>
	<node id="cell1_52" x="17809.070000" y="15724.240000" type="priority"/>
	<node id="cell1_53" x="17909.070000" y="15724.240000" type="priority"/>
	<node id="cell1_54" x="18009.070000" y="15724.240000" type="priority"/>
	<node id="cell1_55" x="18109.070000" y="15724.240000" type="priority"/>
	<node id="cell1_56" x="18209.070000" y="15724.240000" type="priority"/>
	<node id="cell1_57" x="18309.070000" y="15724.240000" type="priority"/>
	<node id="cell1_58" x="18409.070000" y="15724.240000" type="priority"/>
	<node id="cell1_59" x="18509.070000" y="15724.240000" type="priority"/>
	<node id="cell1_60" x="18609.070000" y="15724.240000" type="priority"/>
	<node id="cell1_61" x="18709.070000" y="15724.240000" type="priority"/>
	<node id="cell1_62" x="18809.070000" y="15724.240000" type="priority"/>
	<node id="cell1_63" x="18909.070000" y="15724.240000" type="priority"/>
	<node id="cell1_64" x="19009.070000" y="15724.240000" type="priority"/>
	<node id="cell1_65" x="19109.070000" y="15724.240000" type="priority"/>
	<node id="cell1_66" x="19209.070000" y="15724.240000" type="priority"/>
	<node id="cell1_67" x="19309.070000" y="15724.240000" type="priority"/>
	<node id="cell1_68" x="19409.070000" y="15724.240000" type="priority"/>
	<node id="cell1_69" x="19509.070000" y="15724.240000" type="priority"/>
	<node id="cell1_70" x="19609.070000" y="15724.240000" type="priority"/>
	<node id="cell1_71" x="19709.070000" y="15724.240000" type="priority"/>
	<node id="cell1_72" x="19809.070000" y="15724.240000" type="priority"/>
	<node id="cell1_73" x="19909.070000" y="15724.240000" type="priority"/>
	<node id="cell1_74" x="20009.070000" y="15724.240000" type="priority"/>
	<node id="cell1_75" x="20109.070000" y="15724.240000" type="priority"/>
	<node id="cell1_76" x="20209.070000" y="15724.240000" type="priority"/>
	<node id="cell1_77" x="20309.070000" y="15724.240000" type="priority"/>
	<node id="cell1_78" x="20409.070000" y="15724.240000" type="priority"/>
	<node id="cell1_79" x="20509.070000" y="15724.240000" type="priority"/>
	<node id="cell1_80" x="20609.070000" y="15724.240000" type="priority"/>
	<node id="cell1_81" x="20709.070000" y="15724.240000" type="priority"/>
	<node id="cell2_0" x="12609.070000" y="15624.240000" type="priority"/>
	<node id="cell2_1" x="12709.070000" y="15624.240000" type="priority"/>
	<node id="cell2_2" x="12809.070000" y="15624.240000" type="priority"/>
	<node id="cell2_3" x="12909.070000" y="15624.240000" type="priority"/>
	<node id="cell2_4" x="13009.070000" y="15624.240000" type="priority"/>
	<node id="cell2_5" x="13109.070000" y="15624.240000" type="priority"/>
	<node id="cell2_6" x="13209.070000" y="15624.240000" type="priority"/>
	<node id="cell2_7" x="13309.070000" y="15624.240000" type="priority"/>
	<node id="cell2_8" x="13409.070000" y="15624.240000" type="priority"/>
	<node id="cell2_9" x="13509.070000" y="15624.240000" type="priority"/>
	<node id="cell2_10" x="13609.070000" y="15624.240000" type="priority"/>
	<node id="cell2_11" x="13709.070000" y="15624.240000" type="priority"/>
	<node id="cell2_12" x="13809.070000" y="15624.240000" type="priority"/>
	<node id="cell2_13" x="13909.070000" y="15624.240000" type="priority"/>
	<node id="cell2_14" x="14009.070000" y="15624.240000" type="priority"/>
	<node id="cell2_15" x="14109.070000" y="15624.240000" type="priority"/>
	<node id="cell2_16" x="14209.070000" y="15624.240000" type="priority"/>
	<node id="cell2_17" x="14309.070000" y="15624.240000" type="priority"/>
	<node id="cell2_18" x="14409.070000" y="15624.240000" type="priority"/>
	<node id="cell2_19" x="14509.070000" y="15624.240000" type="priority"/>
	<node id="cell2_20" x="14609.070000" y="15624.240000" type="priority"/>
	<node id="cell2_21" x="14709.070000" y="15624.240000" type="priority"/>
	<node id="cell2_22" x="14809.070000" y="15624.240000" type="priority"/>
	<node id="cell2_23" x="14909.070000" y="15624.240000" type="priority"/>
	<node id="cell2_24" x="15009.070000" y="15624.240000" type="priority"/>
	<node id="cell2_25" x="15109.070000" y="15624.240000" type="priority"/>
	<node id="cell2_26" x="15209.070000" y="15624.240000" type="priority"/>
	<node id="cell2_27" x="15309.070000" y="15624.240000" type="priority"/>
	<node id="cell2_28" x="15409.070000" y="15624.240000" type="priority"/>
	<node id="cell2_29" x="15509.070000" y="15624.240000" type="priority"/>
	<node id="cell2_30" x="15609.070000" y="15624.240000" type="priority"/>
	<node id="cell2_31" x="15709.070000" y="15624.240000" type="priority"/>
	<node id="cell2_32" x="15809.070000" y="15624.240000" type="priority"/>
	<node id="cell2_33" x="15909.070000" y="15624.240000" type="priority"/>
	<node id="cell2_34" x="16009.070000" y="15624.240000" type="priority"/>
	<node id="cell2_35" x="16109.070000" y="15624.240000" type="priority"/>
	<node id="cell2_36" x="16209.070000" y="15624.240000" type="priority"/>
	<node id="cell2_37" x="16309.070000" y="15624.240000" type="priority"/>
	<node id="cell2_38" x="16409.070000" y="15624.240000" type="priority"/>
	<node id="cell2_39" x="16509.070000" y="15624.240000" type="priority"/>
	<node id="cell2_40" x="16609.070000" y="15624.240000" type="priority"/>
	<node id="cell2_41" x="16709.070000" y="15624.240000" type="priority"/>
	<node id="cell2_42" x="16809.070000" y="15624.240000" type="priority"/>
	<node id="cell2_43" x="16909.070000" y="15624.240000" type="priority"/>
	<node id="cell2_44" x="17009.070000" y="15624.240000" type="priority"/>
	<node id="cell2_45" x="17109.070000" y="15624.240000" type="priority"/>
	<node id="cell2_46" x="17209.070000" y="15624.240000" type="priority"/>
	<node id="cell2_47" x="17309.070000" y="15624.240000" type="priority"/>
	<node id="cell2_48" x="17409.070000" y="15624.240000" type="priority"/>
	<node id="cell2_49" x="17509.070000" y="15624.240000" type="priority"/>
	<node id="cell2_50" x="17609.070000" y="15624.240000" type="priority"/>
	<node id="cell2_51" x="17709.070000" y="15624.240000" type="priority"/>
	<node id="cell2_52" x="17809.070000" y="15624.240000" type="priority"/>
	<node id="cell2_53" x="17909.070000" y="15624.240000" type="priority"/>
	<node id="cell2_54" x="18009.070000" y="15624.240000" type="priority"/>
	<node id="cell2_55" x="18109.070000" y="15624.240000" type="priority"/>
	<node id="cell2_56" x="18209.070000" y="15624.240000" type="priority"/>
	<node id="cell2_57" x="18309.070000" y="15624.240000" type="priority"/>
	<node id="cell2_58" x="18409.070000" y="15624.240000" type="priority"/>
	<node id="cell2_59" x="18509.070000" y="15624.240000" type="priority"/>
	<node id="cell2_60" x="18609.070000" y="15624.240000" type="priority"/>
	<node id="cell2_61" x="18709.070000" y="15624.240000" type="priority"/>
	<node id="cell2_62" x="18809.070000" y="15624.240000" type="priority"/>
	<node id="cell2_63" x="18909.070000" y="15624.240000" type="priority"/>
	<node id="cell2_64" x="19009.070000" y="15624.240000" type="priority"/>
	<node id="cell2_65" x="19109.070000" y="15624.240000" type="priority"/>
	<node id="cell2_66" x="19209.070000" y="15624.240000" type="priority"/>
	<node id="cell2_67" x="19309.070000" y="15624.240000" type="priority"/>
	<node id="cell2_68" x="19409.070000" y="15624.240000" type="priority"/>
	<node id="cell2_69" x="19509.070000" y="15624.240000" type="priority"/>
	<node id="cell2_70" x="19609.070000" y="15624.240000" type="priority"/>
	<node id="cell2_71" x="19709.070000" y="15624.240000" type="priority"/>
	<node id="cell2_72" x="19809.070000" y="15624.240000" type="priority"/>
	<node id="cell2_73" x="19909.070000" y="15624.240000" type="priority"/>
	<node id="cell2_74" x="20009.070000" y="15624.240000" type="priority"/>
	<node id="cell2_75" x="20109.070000" y="15624.240000" type="priority"/>
	<node id="cell2_76" x="20209.070000" y="15624.240000" type="priority"/>
	<node id="cell2_77" x="20309.070000" y="15624.240000" type="priority"/>
	<node id="cell2_78" x="20409.070000" y="15624.240000" type="priority"/>
	<node id="cell2_79" x="20509.070000" y="15624.240000" type="priority"/>
	<node id="cell2_80" x="20609.070000" y="15624.240000" type="priority"/>
	<node id="cell2_81" x="20709.070000" y="15624.240000" type="priority"/>
	<node id="cell3_0" x="12609.070000" y="15524.240000" type="priority"/>
	<node id="cell3_1" x="12709.070000" y="15524.240000" type="priority"/>
	<node id="cell3_2" x="12809.070000" y="15524.240000" type="priority"/>
	<node id="cell3_3" x="12909.070000" y="15524.240000" type="priority"/>
	<node id="cell3_4" x="13009.070000" y="15524.240000" type="priority"/>
	<node id="cell3_5" x="13109.070000" y="15524.240000" type="priority"/>
	<node id="cell3_6" x="13209.070000" y="15524.240000" type="priority"/>
	<node id="cell3_7" x="13309.070000" y="15524.240000" type="priority"/>
	<node id="cell3_8" x="13409.070000" y="15524.240000" type="priority"/>
	<node id="cell3_9" x="13509.070000" y="15524.240000" type="priority"/>
	<node id="cell3_10" x="13609.070000" y="15524.240000" type="priority"/>
	<node id="cell3_11" x="13709.070000" y="15524.240000" type="priority"/>
	<node id="cell3_12" x="13809.070000" y="15524.240000" type="priority"/>
	<node id="cell3_13" x="13909.070000" y="15524.240000" type="priority"/>
	<node id="cell3_14" x="14009.070000" y="15524.240000" type="priority"/>
	<node id="cell3_15" x="14109.070000" y="15524.240000" type="priority"/>
	<node id="cell3_16" x="14209.070000" y="15524.240000" type="priority"/>
	<node id="cell3_17" x="14309.070000" y="15524.240000" type="priority"/>
	<node id="cell3_18" x="14409.070000" y="15524.240000" type="priority"/>
	<node id="cell3_19" x="14509.070000" y="15524.240000" type="priority"/>
	<node id="cell3_20" x="14609.070000" y="15524.240000" type="priority"/>
	<node id="cell3_21" x="14709.070000" y="15524.240000" type="priority"/>
	<node id="cell3_22" x="14809.070000" y="15524.240000" type="priority"/>
	<node id="cell3_23" x="14909.070000" y="15524.240000" type="priority"/>
	<node id="cell3_24" x="15009.070000" y="15524.240000" type="priority"/>
	<node id="cell3_25" x="15109.070000" y="15524.240000" type="priority"/>
	<node id="cell3_26" x="15209.070000" y="15524.240000" type="priority"/>
	<node id="cell3_27" x="15309.070000" y="15524.240000" type="priority"/>
	<node id="cell3_28" x="15409.070000" y="15524.240000" type="priority"/>
	<node id="cell3_29" x="15509.070000" y="15524.240000" type="priority"/>
	<node id="cell3_30" x="15609.070000" y="15524.240000" type="priority"/>
	<node id="cell3_31" x="15709.070000" y="15524.240000" type="priority"/>
	<node id="cell3_32" x="15809.070000" y="15524.240000" type="priority"/>
	<node id="cell3_33" x="15909.070000" y="15524.240000" type="priority"/>
	<node id="cell3_34" x="16009.070000" y="15524.240000" type="priority"/>
	<node id="cell3_35" x="16109.070000" y="15524.240000" type="priority"/>
	<node id="cell3_36" x="16209.070000" y="15524.240000" type="priority"/>
	<node id="cell3_37" x="16309.070000" y="15524.240000" type="priority"/>
	<node id="cell3_38" x="16409.070000" y="15524.240000" type="priority"/>
	<node id="cell3_39" x="16509.070000" y="15524.240000" type="priority"/>
	<node id="cell3_40" x="16609.070000" y="15524.240000" type="priority"/>
	<node id="cell3_41" x="16709.070000" y="15524.240000" type="priority"/>
	<node id="cell3_42" x="16809.070000" y="15524.240000" type="priority"/>
	<node id="cell3_43" x="16909.070000" y="15524.240000" type="priority"/>
	<node id="cell3_44" x="17009.070000" y="15524.240000" type="priority"/>
	<node id="cell3_45" x="17109.070000" y="15524.240000" type="priority"/>
	<node id="cell3_46" x="17209.070000" y="15524.240000" type="priority"/>
	<node id="cell3_47" x="17309.070000" y="15524.240000" type="priority"/>
	<node id="cell3_48" x="17409.070000" y="15524.240000" type="priority"/>
	<node id="cell3_49" x="17509.070000" y="15524.240000" type="priority"/>
	<node id="cell3_50" x="17609.070000" y="15524.240000" type="priority"/>
	<node id="cell3_51" x="17709.070000" y="15524.240000" type="priority"/>
	<node id="cell3_52" x="17809.070000" y="15524.240000" type="priority"/>
	<node id="cell3_53" x="17909.070000" y="15524.240000" type="priority"/>
	<node id="cell3_54" x="18009.070000" y="15524.240000" type="priority"/>
	<node id="cell3_55" x="18109.070000" y="15524.240000" type="priority"/>
	<node id="cell3_56" x="18209.070000" y="15524.240000" type="priority"/>
	<node id="cell3_57" x="18309.070000" y="15524.240000" type="priority"/>
	<node id="cell3_58" x="18409.070000" y="15524.240000" type="priority"/>
	<node id="cell3_59" x="18509.070000" y="15524.240000" type="priority"/>
	<node id="cell3_60" x="18609.070000" y="15524.240000" type="priority"/>
	<node id="cell3_61" x="18709.070000" y="15524.240000" type="priority"/>
	<node id="cell3_62" x="18809.070000" y="15524.240000" type="priority"/>
	<node id="cell3_63" x="18909.070000" y="15524.240000" type="priority"/>
	<node id="cell3_64" x="19009.070000" y="15524.240000" type="priority"/>
	<node id="cell3_65" x="19109.070000" y="15524.240000" type="priority"/>
	<node id="cell3_66" x="19209.070000" y="15524.240000" type="priority"/>
	<node id="cell3_67" x="19309.070000" y="15524.240000" type="priority"/>
	<node id="cell3_68" x="19409.070000" y="15524.240000" type="priority"/>
	<node id="cell3_69" x="19509.070000" y="15524.240000" type="priority"/>
	<node id="cell3_70" x="19609.070000" y="15524.240000" type="priority"/>
	<node id="cell3_71" x="19709.070000" y="15524.240000" type="priority"/>
	<node id="cell3_72" x="19809.070000" y="15524.240000" type="priority"/>
	<node id="cell3_73" x="19909.070000" y="15524.240000" type="priority"/>
	<node id="cell3_74" x="20009.070000" y="15524.240000" type="priority"/>
	<node id="cell3_75" x="20109.070000" y="15524.240000" type="priority"/>
	<node id="cell3_76" x="20209.070000" y="15524.240000" type="priority"/>
	<node id="cell3_77" x="20309.070000" y="15524.240000" type="priority"/>
	<node id="cell3_78" x="20409.070000" y="15524.240000" type="priority"/>
	<node id="cell3_79" x="20509.070000" y="15524.240000" type="priority"/>
	<node id="cell3_80" x="20609.070000" y="15524.240000" type="priority"/>
	<node id="cell3_81" x="20709.070000" y="15524.240000" type="priority"/>
	<node id="cell4_0" x="12609.070000" y="15424.240000" type="priority"/>
	<node id="cell4_1" x="12709.070000" y="15424.240000" type="priority"/>
	<node id="cell4_2" x="12809.070000" y="15424.240000" type="priority"/>
	<node id="cell4_3" x="12909.070000" y="15424.240000" type="priority"/>
	<node id="cell4_4" x="13009.070000" y="15424.240000" type="priority"/>
	<node id="cell4_5" x="13109.070000" y="15424.240000" type="priority"/>
	<node id="cell4_6" x="13209.070000" y="15424.240000" type="priority"/>
	<node id="cell4_7" x="13309.070000" y="15424.240000" type="priority"/>
	<node id="cell4_8" x="13409.070000" y="15424.240000" type="priority"/>
	<node id="cell4_9" x="13509.070000" y="15424.240000" type="priority"/>
	<node id="cell4_10" x="13609.070000" y="15424.240000" type="priority"/>
	<node id="cell4_11" x="13709.070000" y="15424.240000" type="priority"/>
	<node id="cell4_12" x="13809.070000" y="15424.240000" type="priority"/>
	<node id="cell4_13" x="13909.070000" y="15424.240000" type="priority"/>
	<node id="cell4_14" x="14009.070000" y="15424.240000" type="priority"/>
	<node id="cell4_15" x="14109.070000" y="15424.240000" type="priority"/>
	<node id="cell4_16" x="14209.070000" y="15424.240000" type="priority"/>
	<node id="cell4_17" x="14309.070000" y="15424.240000" type="priority"/>
	<node id="cell4_18" x="14409.070000" y="15424.240000" type="priority"/>
	<node id="cell4_19" x="14509.070000" y="15424.240000" type="priority"/>
	<node id="cell4_20" x="14609.070000" y="15424.240000" type="priority"/>
	<node id="cell4_21" x="14709.070000" y="15424.240000" type="priority"/>
	<node id="cell4_22" x="14809.070000" y="15424.240000" type="priority"/>
	<node id="cell4_23" x="14909.070000" y="15424.240000" type="priority"/>
	<node id="cell4_24" x="15009.070000" y="15424.240000" type="priority"/>
	<node id="cell4_25" x="15109.070000" y="15424.240000" type="priority"/>
	<node id="cell4_26" x="15209.070000" y="15424.240000" type="priority"/>
	<node id="cell4_27" x="15309.070000" y="15424.240000" type="priority"/>
	<node id="cell4_28" x="15409.070000" y="15424.240000" type="priority"/>
	<node id="cell4_29" x="15509.070000" y="15424.240000" type="priority"/>
	<node id="cell4_30" x="15609.070000" y="15424.240000" type="priority"/>
	<node id="cell4_31" x="15709.070000" y="15424.240000" type="priority"/>
	<node id="cell4_32" x="15809.070000" y="15424.240000" type="priority"/>
	<node id="cell4_33" x="15909.070000" y="15424.240000" type="priority"/>
	<node id="cell4_34" x="16009.070000" y="15424.240000" type="priority"/>
	<node id="cell4_35" x="16109.070000" y="15424.240000" type="priority"/>
	<node id="cell4_36" x="16209.070000" y="15424.240000" type="priority"/>
	<node id="cell4_37" x="16309.070000" y="15424.240000" type="priority"/>
	<node id="cell4_38" x="16409.070000" y="15424.240000" type="priority"/>
	<node id="cell4_39" x="16509.070000" y="15424.240000" type="priority"/>
	<node id="cell4_40" x="16609.070000" y="15424.240000" type="priority"/>
	<node id="cell4_41" x="16709.070000" y="15424.240000" type="priority"/>
	<node id="cell4_42" x="16809.070000" y="15424.240000" type="priority"/>
	<node id="cell4_43" x="16909.070000" y="15424.240000" type="priority"/>
	<node id="cell4_44" x="17009.070000" y="15424.240000" type="priority"/>
	<node id="cell4_45" x="17109.070000" y="15424.240000" type="priority"/>
	<node id="cell4_46" x="17209.070000" y="15424.240000" type="priority"/>
	<node id="cell4_47" x="17309.070000" y="15424.240000" type="priority"/>
	<node id="cell4_48" x="17409.070000" y="15424.240000" type="priority"/>
	<node id="cell4_49" x="17509.070000" y="15424.240000" type="priority"/>
	<node id="cell4_50" x="17609.070000" y="15424.240000" type="priority"/>
	<node id="cell4_51" x="17709.070000" y="15424.240000" type="priority"/>
	<node id="cell4_52" x="17809.070000" y="15424.240000" type="priority"/>
	<node id="cell4_53" x="17909.070000" y="15424.240000" type="priority"/>
	<node id="cell4_54" x="18009.070000" y="15424.240000" type="priority"/>
	<node id="cell4_55" x="18109.070000" y="15424.240000" type="priority"/>
	<node id="cell4_56" x="18209.070000" y="15424.240000" type="priority"/>
	<node id="cell4_57" x="18309.070000" y="15424.240000" type="priority"/>
	<node id="cell4_58" x="18409.070000" y="15424.240000" type="priority"/>
	<node id="cell4_59" x="18509.070000" y="15424.240000" type="priority"/>
	<node id="cell4_60" x="18609.070000" y="15424.240000" type="priority"/>
	<node id="cell4_61" x="18709.070000" y="15424.240000" type="priority"/>
	<node id="cell4_62" x="18809.070000" y="15424.240000" type="priority"/>
	<node id="cell4_63" x="18909.070000" y="15424.240000" type="priority"/>
	<node id="cell4_64" x="19009.070000" y="15424.240000" type="priority"/>
	<node id="cell4_65" x="19109.070000" y="15424.240000" type="priority"/>
	<node id="cell4_66" x="19209.070000" y="15424.240000" type="priority"/>
	<node id="cell4_67" x="19309.070000" y="15424.240000" type="priority"/>
	<node id="cell4_68" x="19409.070000" y="15424.240000" type="priority"/>
	<node id="cell4_69" x="19509.070000" y="15424.240000" type="priority"/>
	<node id="cell4_70" x="19609.070000" y="15424.240000" type="priority"/>
	<node id="cell4_71" x="19709.070000" y="15424.240000" type="priority"/>
	<node id="cell4_72" x="19809.070000" y="15424.240000" type="priority"/>
	<node id="cell4_73" x="19909.070000" y="15424.240000" type="priority"/>
	<node id="cell4_74" x="20009.070000" y="15424.240000" type="priority"/>
	<node id="cell4_75" x="20109.070000" y="15424.240000" type="priority"/>
	<node id="cell4_76" x="20209.070000" y="15424.240000" type="priority"/>
	<node id="cell4_77" x="20309.070000" y="15424.240000" type="priority"/>
	<node id="cell4_78" x="20409.070000" y="15424.240000" type="priority"/>
	<node id="cell4_79" x="20509.070000" y="15424.240000" type="priority"/>
	<node id="cell4_80" x="20609.070000" y="15424.240000" type="priority"/>
	<node id="cell4_81" x="20709.070000" y="15424.240000" type="priority"/>
	<node id="cell5_0" x="12609.070000" y="15324.240000" type="priority"/>