<?xml version="1.0" encoding="UTF-8"?>

<!-- generated on 07/24/19 14:33:25 by Eclipse SUMO netedit Version v1_0_1+0383-8ba62d898b
<configuration xmlns:xsi="http://www.w3.org/2001/XMLSchema-instance" xsi:noNamespaceSchemaLocation="http://sumo.dlr.de/xsd/netconvertConfiguration.xsd">

    <input>
        <sumo-net-file value="flpoly.net.xml"/>
    </input>

    <output>
        <output-file value="flpoly.net.xml"/>
        <plain-output-prefix value="C:\sumo-windows10\projects\flpoly\data\Version2\flpoly"/>
    </output>

    <processing>
        <offset.disable-normalization value="true"/>
        <lefthand value="false"/>
    </processing>

    <junctions>
        <no-turnarounds value="true"/>
        <junctions.corner-detail value="0"/>
        <junctions.limit-turn-speed value="-1"/>
        <rectangular-lane-cut value="false"/>
    </junctions>

    <pedestrian>
        <walkingareas value="false"/>
    </pedestrian>

</configuration>
-->

<connections version="1.0" xmlns:xsi="http://www.w3.org/2001/XMLSchema-instance" xsi:noNamespaceSchemaLocation="http://sumo.dlr.de/xsd/connections_file.xsd">
    <connection from="-279425022#4" to="279425022#4" fromLane="0" toLane="0"/>

    <connection from="-279425022#5" to="-279425022#4" fromLane="0" toLane="0"/>
    <connection from="-279425022#5" to="279425022#5" fromLane="0" toLane="0"/>

    <connection from="-279425022#6" to="-279425022#5" fromLane="0" toLane="0"/>
    <connection from="-279425022#6" to="279425022#6" fromLane="0" toLane="0"/>

    <connection from="-372651344#1" to="370373771#1" fromLane="0" toLane="0"/>
    <connection from="-372651344#1" to="370373769#7" fromLane="0" toLane="0"/>
    <connection from="-372651344#1" to="372651344#1" fromLane="0" toLane="0"/>

    <connection from="-372651344#2" to="-372651344#1" fromLane="0" toLane="0"/>
    <connection from="-372651344#2" to="372651344#2" fromLane="0" toLane="0"/>

    <connection from="-372651344#3" to="-372651344#2" fromLane="0" toLane="0"/>
    <connection from="-372651344#3" to="-372651345" fromLane="0" toLane="0"/>
    <connection from="-372651344#3" to="372651344#3" fromLane="0" toLane="0"/>

    <connection from="-372651345" to="-372651344#3" fromLane="0" toLane="0"/>
    <connection from="-372651345" to="372651345" fromLane="0" toLane="0"/>

    <connection from="-372651346#2" to="370373771#2" fromLane="0" toLane="0"/>
    <connection from="-372651346#2" to="370373769#6" fromLane="0" toLane="0"/>
    <connection from="-372651346#2" to="372651346#2" fromLane="0" toLane="0"/>

    <connection from="-372651347#0" to="-372651346#2" fromLane="0" toLane="0"/>
    <connection from="-372651347#0" to="372651347#0" fromLane="0" toLane="0"/>

    <connection from="-372651347#1" to="-372651347#0" fromLane="0" toLane="0"/>
    <connection from="-372651347#1" to="372651347#1" fromLane="0" toLane="0"/>

    <connection from="-372651347#2" to="-372651349#3" fromLane="0" toLane="0"/>
    <connection from="-372651347#2" to="-372651347#1" fromLane="0" toLane="0"/>
    <connection from="-372651347#2" to="372651347#2" fromLane="0" toLane="0"/>

    <connection from="-372651347#3" to="-372651347#2" fromLane="0" toLane="0"/>
    <connection from="-372651347#3" to="372651347#3" fromLane="0" toLane="0"/>

    <connection from="-372651347#4" to="-372651347#3" fromLane="0" toLane="0"/>
    <connection from="-372651347#4" to="372651347#4" fromLane="0" toLane="0"/>

    <connection from="-372651347#5" to="-372651347#4" fromLane="0" toLane="0"/>
    <connection from="-372651347#5" to="372651347#5" fromLane="0" toLane="0"/>

    <connection from="-372651347#6" to="372651349#0" fromLane="0" toLane="0"/>
    <connection from="-372651347#6" to="-372651347#5" fromLane="0" toLane="0"/>
    <connection from="-372651347#6" to="372651347#6" fromLane="0" toLane="0"/>

    <connection from="-372651347#7" to="-372651347#6" fromLane="0" toLane="0"/>
    <connection from="-372651347#7" to="372651347#7" fromLane="0" toLane="0"/>

    <connection from="-372651348#0" to="-372651347#7" fromLane="0" toLane="0"/>
    <connection from="-372651348#0" to="507676804#0" fromLane="0" toLane="0"/>
    <connection from="-372651348#0" to="372651348#0" fromLane="0" toLane="0"/>

    <connection from="-372651348#1" to="-372651348#0" fromLane="0" toLane="0"/>
    <connection from="-372651348#1" to="372651348#1" fromLane="0" toLane="0"/>

    <connection from="-372651348#3" to="370373769#5" fromLane="0" toLane="0"/>
    <connection from="-372651348#3" to="-372651348#1" fromLane="0" toLane="0"/>
    <connection from="-372651348#3" to="370373765#3" fromLane="0" toLane="0"/>
    <connection from="-372651348#3" to="372651348#3" fromLane="0" toLane="0"/>

    <connection from="-372651348#4" to="-372651348#3" fromLane="0" toLane="0"/>
    <connection from="-372651348#4" to="372651348#4" fromLane="0" toLane="0"/>

    <connection from="-372651349#0" to="-372651347#5" fromLane="0" toLane="0"/>
    <connection from="-372651349#0" to="372651347#6" fromLane="0" toLane="0"/>
    <connection from="-372651349#0" to="372651349#0" fromLane="0" toLane="0"/>

    <connection from="-372651349#1" to="-372651349#0" fromLane="0" toLane="0"/>
    <connection from="-372651349#1" to="372651349#1" fromLane="0" toLane="0"/>

    <connection from="-372651349#2" to="-372651349#1" fromLane="0" toLane="0"/>
    <connection from="-372651349#2" to="372651349#2" fromLane="0" toLane="0"/>

    <connection from="-372651349#3" to="-372651349#2" fromLane="0" toLane="0"/>
    <connection from="-372651349#3" to="372651349#3" fromLane="0" toLane="0"/>

    <connection from="-372651354#1" to="370373777#4" fromLane="0" toLane="0"/>
    <connection from="-372651354#1" to="370373776#0" fromLane="0" toLane="0"/>
    <connection from="-372651354#1" to="372651354#1" fromLane="0" toLane="0"/>

    <connection from="-372651354#2" to="-372651354#1" fromLane="0" toLane="0"/>
    <connection from="-372651354#2" to="372651354#2" fromLane="0" toLane="0"/>

    <connection from="-372651354#3" to="-372651355" fromLane="0" toLane="0"/>
    <connection from="-372651354#3" to="-372651354#2" fromLane="0" toLane="0"/>
    <connection from="-372651354#3" to="372651354#3" fromLane="0" toLane="0"/>

    <connection from="-372651355" to="-372651354#3" fromLane="0" toLane="0"/>
    <connection from="-372651355" to="372651355" fromLane="0" toLane="0"/>

    <connection from="-468560169" to="370373775#1" fromLane="0" toLane="0"/>
    <connection from="-468560169" to="468560169" fromLane="0" toLane="0"/>

    <connection from="-468560170" to="-468560171" fromLane="0" toLane="0"/>
    <connection from="-468560170" to="-468560169" fromLane="0" toLane="0"/>
    <connection from="-468560170" to="468560170" fromLane="0" toLane="0"/>

    <connection from="-468560171" to="468560171" fromLane="0" toLane="0"/>

    <connection from="-468560215" to="370373768#4" fromLane="0" toLane="0"/>
    <connection from="-468560215" to="468560215" fromLane="0" toLane="0"/>

    <connection from="-468560216" to="370373768#3" fromLane="0" toLane="0"/>
    <connection from="-468560216" to="468560216" fromLane="0" toLane="0"/>

    <connection from="-481476643#1" to="-543965298#3" fromLane="0" toLane="0"/>
    <connection from="-481476643#1" to="543965298#0" fromLane="0" toLane="0"/>
    <connection from="-481476643#1" to="-372651348#4" fromLane="0" toLane="0"/>
    <connection from="-481476643#1" to="481476643#1" fromLane="0" toLane="0"/>

    <connection from="-481476643#2" to="-481476643#1" fromLane="0" toLane="0"/>
    <connection from="-481476643#2" to="481476643#2" fromLane="0" toLane="0"/>

    <connection from="-505127439" to="-505127440#1" fromLane="0" toLane="0"/>
    <connection from="-505127439" to="505127439" fromLane="0" toLane="0"/>

    <connection from="-505127440#0" to="505127440#0" fromLane="0" toLane="0"/>

    <connection from="-505127440#1" to="372651351#1" fromLane="0" toLane="0"/>
    <connection from="-505127440#1" to="-505127440#0" fromLane="0" toLane="0"/>
    <connection from="-505127440#1" to="505127440#1" fromLane="0" toLane="0"/>

    <connection from="-505127444#0" to="-505127447#13" fromLane="0" toLane="0"/>
    <connection from="-505127444#0" to="505127447#14" fromLane="0" toLane="0"/>
    <connection from="-505127444#0" to="505127444#0" fromLane="0" toLane="0"/>

    <connection from="-505127444#1" to="-505127444#0" fromLane="0" toLane="0"/>
    <connection from="-505127444#1" to="505127444#1" fromLane="0" toLane="0"/>

    <connection from="-505127444#2" to="-505127444#1" fromLane="0" toLane="0"/>
    <connection from="-505127444#2" to="505127444#2" fromLane="0" toLane="0"/>

    <connection from="-505127444#3" to="-505127444#2" fromLane="0" toLane="0"/>
    <connection from="-505127444#3" to="505127444#3" fromLane="0" toLane="0"/>

    <connection from="-505127445#0" to="505127445#0" fromLane="0" toLane="0"/>

    <connection from="-505127445#1" to="-505127447#15" fromLane="0" toLane="0"/>
    <connection from="-505127445#1" to="-505127445#0" fromLane="0" toLane="0"/>
    <connection from="-505127445#1" to="505127445#1" fromLane="0" toLane="0"/>

    <connection from="-505127446#2" to="370373777#2" fromLane="0" toLane="0"/>
    <connection from="-505127446#2" to="370373776#4" fromLane="0" toLane="0"/>
    <connection from="-505127446#2" to="505127446#2" fromLane="0" toLane="0"/>

    <connection from="-505127446#3" to="505127447#8" fromLane="0" toLane="0"/>
    <connection from="-505127446#3" to="-505127446#2" fromLane="0" toLane="0"/>
    <connection from="-505127446#3" to="-505127447#7" fromLane="0" toLane="0"/>
    <connection from="-505127446#3" to="505127446#3" fromLane="0" toLane="0"/>

    <connection from="-505127447#0" to="-515362505" fromLane="0" toLane="0"/>
    <connection from="-505127447#0" to="505127447#0" fromLane="0" toLane="0"/>

    <connection from="-505127447#1" to="515362505" fromLane="0" toLane="0"/>
    <connection from="-505127447#1" to="-505127447#0" fromLane="0" toLane="0"/>
    <connection from="-505127447#1" to="505127447#1" fromLane="0" toLane="0"/>

    <connection from="-505127447#10" to="-505127444#3" fromLane="0" toLane="0"/>
    <connection from="-505127447#10" to="-505127447#9" fromLane="0" toLane="0"/>
    <connection from="-505127447#10" to="505127447#10" fromLane="0" toLane="0"/>

    <connection from="-505127447#11" to="-505127447#10" fromLane="0" toLane="0"/>
    <connection from="-505127447#11" to="505127447#11" fromLane="0" toLane="0"/>

    <connection from="-505127447#12" to="-505127447#11" fromLane="0" toLane="0"/>
    <connection from="-505127447#12" to="505127447#12" fromLane="0" toLane="0"/>

    <connection from="-505127447#13" to="-505127447#12" fromLane="0" toLane="0"/>
    <connection from="-505127447#13" to="505127447#13" fromLane="0" toLane="0"/>

    <connection from="-505127447#14" to="505127444#0" fromLane="0" toLane="0"/>
    <connection from="-505127447#14" to="-505127447#13" fromLane="0" toLane="0"/>
    <connection from="-505127447#14" to="505127447#14" fromLane="0" toLane="0"/>

    <connection from="-505127447#15" to="-505127447#14" fromLane="0" toLane="0"/>
    <connection from="-505127447#15" to="505127447#15" fromLane="0" toLane="0"/>

    <connection from="-505127447#2" to="-505127447#1" fromLane="0" toLane="0"/>
    <connection from="-505127447#2" to="505127447#2" fromLane="0" toLane="0"/>

    <connection from="-505127447#4" to="515362502#0" fromLane="0" toLane="0"/>
    <connection from="-505127447#4" to="-505127447#2" fromLane="0" toLane="0"/>
    <connection from="-505127447#4" to="505127447#4" fromLane="0" toLane="0"/>

    <connection from="-505127447#5" to="-515362508" fromLane="0" toLane="0"/>
    <connection from="-505127447#5" to="-505127447#4" fromLane="0" toLane="0"/>
    <connection from="-505127447#5" to="505127447#5" fromLane="0" toLane="0"/>

    <connection from="-505127447#6" to="515362508" fromLane="0" toLane="0"/>
    <connection from="-505127447#6" to="-505127447#5" fromLane="0" toLane="0"/>
    <connection from="-505127447#6" to="505127447#6" fromLane="0" toLane="0"/>

    <connection from="-505127447#7" to="-505127447#6" fromLane="0" toLane="0"/>
    <connection from="-505127447#7" to="505127447#7" fromLane="0" toLane="0"/>

    <connection from="-505127447#8" to="-505127446#2" fromLane="0" toLane="0"/>
    <connection from="-505127447#8" to="-505127447#7" fromLane="0" toLane="0"/>
    <connection from="-505127447#8" to="505127446#3" fromLane="0" toLane="0"/>
    <connection from="-505127447#8" to="505127447#8" fromLane="0" toLane="0"/>

    <connection from="-505127447#9" to="-505127447#8" fromLane="0" toLane="0"/>
    <connection from="-505127447#9" to="505127447#9" fromLane="0" toLane="0"/>

    <connection from="-507676804#0" to="372651348#0" fromLane="0" toLane="0"/>
    <connection from="-507676804#0" to="-372651347#7" fromLane="0" toLane="0"/>
    <connection from="-507676804#0" to="507676804#0" fromLane="0" toLane="0"/>

    <connection from="-507676804#1" to="-507676804#0" fromLane="0" toLane="0"/>
    <connection from="-507676804#1" to="507676804#1" fromLane="0" toLane="0"/>

    <connection from="-507676804#2" to="-507676804#1" fromLane="0" toLane="0"/>
    <connection from="-507676804#2" to="515362459" fromLane="0" toLane="0"/>
    <connection from="-507676804#2" to="507676804#2" fromLane="0" toLane="0"/>

    <connection from="-515362459" to="507676804#2" fromLane="0" toLane="0"/>
    <connection from="-515362459" to="-507676804#1" fromLane="0" toLane="0"/>
    <connection from="-515362459" to="515362459" fromLane="0" toLane="0"/>

    <connection from="-515362502#0" to="-505127447#2" fromLane="0" toLane="0"/>
    <connection from="-515362502#0" to="505127447#4" fromLane="0" toLane="0"/>
    <connection from="-515362502#0" to="515362502#0" fromLane="0" toLane="0"/>

    <connection from="-515362505" to="-505127447#0" fromLane="0" toLane="0"/>
    <connection from="-515362505" to="505127447#1" fromLane="0" toLane="0"/>
    <connection from="-515362505" to="515362505" fromLane="0" toLane="0"/>

    <connection from="-515362508" to="-505127447#5" fromLane="0" toLane="0"/>
    <connection from="-515362508" to="505127447#6" fromLane="0" toLane="0"/>
    <connection from="-515362508" to="515362508" fromLane="0" toLane="0"/>

    <connection from="-543965298#0" to="-372651348#4" fromLane="0" toLane="0"/>
    <connection from="-543965298#0" to="481476643#1" fromLane="0" toLane="0"/>
    <connection from="-543965298#0" to="-543965298#3" fromLane="0" toLane="0"/>
    <connection from="-543965298#0" to="543965298#0" fromLane="0" toLane="0"/>

    <connection from="-543965298#1" to="-543965298#0" fromLane="0" toLane="0"/>
    <connection from="-543965298#1" to="543965298#1" fromLane="0" toLane="0"/>

    <connection from="-543965298#2" to="-543965298#1" fromLane="0" toLane="0"/>
    <connection from="-543965298#2" to="543965299" fromLane="0" toLane="0"/>
    <connection from="-543965298#2" to="543965298#2" fromLane="0" toLane="0"/>

    <connection from="-543965298#3" to="-543965298#2" fromLane="0" toLane="0"/>
    <connection from="-543965298#3" to="543965300" fromLane="0" toLane="0"/>
    <connection from="-543965298#3" to="543965298#3" fromLane="0" toLane="0"/>

    <connection from="-543965299" to="543965298#2" fromLane="0" toLane="0"/>
    <connection from="-543965299" to="-543965298#1" fromLane="0" toLane="0"/>
    <connection from="-543965299" to="543965299" fromLane="0" toLane="0"/>

    <connection from="-543965300" to="543965298#3" fromLane="0" toLane="0"/>
    <connection from="-543965300" to="-543965298#2" fromLane="0" toLane="0"/>
    <connection from="-543965300" to="543965300" fromLane="0" toLane="0"/>

    <connection from="-545951175#1" to="370373765#4" fromLane="0" toLane="0"/>
    <connection from="-545951175#1" to="370373769#1" fromLane="0" toLane="0"/>
    <connection from="-545951175#1" to="545951175#1" fromLane="0" toLane="0"/>

    <connection from="-595186068" to="370373776#1" fromLane="0" toLane="0"/>
    <connection from="-595186068" to="595186068" fromLane="0" toLane="0"/>

    <connection from="279425010#2" to="370373762#2" fromLane="0" toLane="0"/>
    <connection from="279425010#2" to="481476604#2" fromLane="1" toLane="0"/>
    <connection from="279425010#2" to="279425015#2" fromLane="1" toLane="1"/>

    <connection from="279425015#0" to="279425015#2" fromLane="0" toLane="0"/>
    <connection from="279425015#0" to="279425015#2" fromLane="1" toLane="1"/>
    <connection from="279425015#0" to="370373762#2" fromLane="1" toLane="0"/>
    <connection from="279425015#0" to="481476604#2" fromLane="1" toLane="0"/>

    <connection from="279425022#4" to="279425022#5" fromLane="0" toLane="0"/>
    <connection from="279425022#4" to="-279425022#4" fromLane="0" toLane="0"/>

    <connection from="279425022#5" to="279425022#6" fromLane="0" toLane="0"/>
    <connection from="279425022#5" to="-279425022#5" fromLane="0" toLane="0"/>

    <connection from="279425022#6" to="-279425022#6" fromLane="0" toLane="0"/>

    <connection from="370373762#2" to="372651341#0" fromLane="0" toLane="0"/>

    <connection from="370373763#0" to="370373763#1" fromLane="0" toLane="0"/>

    <connection from="370373763#1" to="372651339#0" fromLane="0" toLane="0"/>

    <connection from="370373765#0" to="-372651348#1" fromLane="0" toLane="0"/>
    <connection from="370373765#0" to="370373765#3" fromLane="0" toLane="0"/>
    <connection from="370373765#0" to="372651348#3" fromLane="0" toLane="0"/>
    <connection from="370373765#0" to="370373769#5" fromLane="0" toLane="0"/>

    <connection from="370373765#3" to="545951175#1" fromLane="0" toLane="0"/>
    <connection from="370373765#3" to="370373765#4" fromLane="0" toLane="0"/>
    <connection from="370373765#3" to="370373769#1" fromLane="0" toLane="0"/>

    <connection from="370373765#4" to="481476641#0" fromLane="0" toLane="0"/>

    <connection from="370373766" to="372651339#0" fromLane="0" toLane="0"/>

    <connection from="370373767#0" to="-515362502#0" fromLane="0" toLane="0"/>
    <connection from="370373767#0" to="370373777#0" fromLane="0" toLane="0"/>
    <connection from="370373767#0" to="372651350#1" fromLane="0" toLane="0"/>
    <connection from="370373767#0" to="370373768#2" fromLane="0" toLane="0"/>

    <connection from="370373768#2" to="468560216" fromLane="0" toLane="0"/>
    <connection from="370373768#2" to="370373768#3" fromLane="0" toLane="0"/>

    <connection from="370373768#3" to="468560215" fromLane="0" toLane="0"/>
    <connection from="370373768#3" to="370373768#4" fromLane="0" toLane="0"/>

    <connection from="370373768#4" to="370373763#0" fromLane="0" toLane="0"/>

    <connection from="370373769#0" to="370373769#1" fromLane="0" toLane="0"/>
    <connection from="370373769#0" to="545951175#1" fromLane="0" toLane="0"/>
    <connection from="370373769#0" to="370373765#4" fromLane="0" toLane="0"/>

    <connection from="370373769#1" to="-481476643#2" fromLane="0" toLane="0"/>
    <connection from="370373769#1" to="370373769#2" fromLane="0" toLane="0"/>

    <connection from="370373769#2" to="372651348#3" fromLane="0" toLane="0"/>
    <connection from="370373769#2" to="370373769#5" fromLane="0" toLane="0"/>
    <connection from="370373769#2" to="-372651348#1" fromLane="0" toLane="0"/>
    <connection from="370373769#2" to="370373765#3" fromLane="0" toLane="0"/>

    <connection from="370373769#5" to="370373769#6" fromLane="0" toLane="0"/>
    <connection from="370373769#5" to="372651346#2" fromLane="0" toLane="0"/>
    <connection from="370373769#5" to="370373771#2" fromLane="0" toLane="0"/>

    <connection from="370373769#6" to="370373769#7" fromLane="0" toLane="0"/>
    <connection from="370373769#6" to="372651344#1" fromLane="0" toLane="0"/>
    <connection from="370373769#6" to="370373771#1" fromLane="0" toLane="0"/>

    <connection from="370373769#7" to="372651352" fromLane="0" toLane="0"/>

    <connection from="370373770" to="370373771#0" fromLane="0" toLane="0"/>

    <connection from="370373771#0" to="372651344#1" fromLane="0" toLane="0"/>
    <connection from="370373771#0" to="370373771#1" fromLane="0" toLane="0"/>
    <connection from="370373771#0" to="370373769#7" fromLane="0" toLane="0"/>

    <connection from="370373771#1" to="372651346#2" fromLane="0" toLane="0"/>
    <connection from="370373771#1" to="370373771#2" fromLane="0" toLane="0"/>
    <connection from="370373771#1" to="370373769#6" fromLane="0" toLane="0"/>

    <connection from="370373771#2" to="370373765#0" fromLane="0" toLane="0"/>

    <connection from="370373773" to="372651356" fromLane="0" toLane="0"/>

    <connection from="370373774" to="481476640#0" fromLane="0" toLane="0"/>

    <connection from="370373775#0" to="468560169" fromLane="0" toLane="0"/>
    <connection from="370373775#0" to="370373775#1" fromLane="0" toLane="0"/>

    <connection from="370373775#1" to="370373776#0" fromLane="0" toLane="0"/>
    <connection from="370373775#1" to="372651354#1" fromLane="0" toLane="0"/>
    <connection from="370373775#1" to="370373777#4" fromLane="0" toLane="0"/>

    <connection from="370373776#0" to="595186068" fromLane="0" toLane="0"/>
    <connection from="370373776#0" to="370373776#1" fromLane="0" toLane="0"/>

    <connection from="370373776#1" to="-595186068" fromLane="0" toLane="0"/>
    <connection from="370373776#1" to="370373776#2" fromLane="0" toLane="0"/>

    <connection from="370373776#2" to="370373776#3" fromLane="0" toLane="0"/>
    <connection from="370373776#2" to="-505127445#1" fromLane="0" toLane="0"/>
    <connection from="370373776#2" to="370373777#3" fromLane="0" toLane="0"/>

    <connection from="370373776#3" to="370373776#4" fromLane="0" toLane="0"/>
    <connection from="370373776#3" to="505127446#2" fromLane="0" toLane="0"/>
    <connection from="370373776#3" to="370373777#2" fromLane="0" toLane="0"/>

    <connection from="370373776#4" to="370373776#5" fromLane="0" toLane="0"/>

    <connection from="370373776#5" to="372651350#1" fromLane="0" toLane="0"/>
    <connection from="370373776#5" to="370373768#2" fromLane="0" toLane="0"/>
    <connection from="370373776#5" to="-515362502#0" fromLane="0" toLane="0"/>
    <connection from="370373776#5" to="370373777#0" fromLane="0" toLane="0"/>

    <connection from="370373777#0" to="370373777#1" fromLane="0" toLane="0"/>

    <connection from="370373777#1" to="505127446#2" fromLane="0" toLane="0"/>
    <connection from="370373777#1" to="370373777#2" fromLane="0" toLane="0"/>
    <connection from="370373777#1" to="370373776#4" fromLane="0" toLane="0"/>

    <connection from="370373777#2" to="-505127445#1" fromLane="0" toLane="0"/>
    <connection from="370373777#2" to="370373777#3" fromLane="0" toLane="0"/>
    <connection from="370373777#2" to="370373776#3" fromLane="0" toLane="0"/>

    <connection from="370373777#3" to="372651354#1" fromLane="0" toLane="0"/>
    <connection from="370373777#3" to="370373777#4" fromLane="0" toLane="0"/>
    <connection from="370373777#3" to="370373776#0" fromLane="0" toLane="0"/>

    <connection from="370373777#4" to="481476622#0" fromLane="0" toLane="0"/>

    <connection from="372651339#0" to="372651339#1" fromLane="0" toLane="0"/>
    <connection from="372651339#0" to="372651342" fromLane="0" toLane="0"/>

    <connection from="372651339#1" to="481476604#2" fromLane="0" toLane="0"/>
    <connection from="372651339#1" to="279425015#2" fromLane="0" toLane="1"/>
    <connection from="372651339#1" to="370373762#2" fromLane="0" toLane="0"/>

    <connection from="372651340" to="481476631#0" fromLane="0" toLane="0"/>
    <connection from="372651340" to="370373766" fromLane="0" toLane="0"/>

    <connection from="372651341#0" to="481476642#0" fromLane="0" toLane="0"/>
    <connection from="372651341#0" to="372651341#1" fromLane="0" toLane="0"/>

    <connection from="372651341#1" to="372651340" fromLane="0" toLane="0"/>

    <connection from="372651342" to="372651341#0" fromLane="0" toLane="0"/>

    <connection from="372651344#1" to="372651344#2" fromLane="0" toLane="0"/>
    <connection from="372651344#1" to="-372651344#1" fromLane="0" toLane="0"/>

    <connection from="372651344#2" to="-372651345" fromLane="0" toLane="0"/>
    <connection from="372651344#2" to="372651344#3" fromLane="0" toLane="0"/>
    <connection from="372651344#2" to="-372651344#2" fromLane="0" toLane="0"/>

    <connection from="372651344#3" to="372651345" fromLane="0" toLane="0"/>
    <connection from="372651344#3" to="-372651344#3" fromLane="0" toLane="0"/>

    <connection from="372651345" to="372651344#3" fromLane="0" toLane="0"/>
    <connection from="372651345" to="-372651344#2" fromLane="0" toLane="0"/>
    <connection from="372651345" to="-372651345" fromLane="0" toLane="0"/>

    <connection from="372651346#2" to="372651347#0" fromLane="0" toLane="0"/>
    <connection from="372651346#2" to="-372651346#2" fromLane="0" toLane="0"/>

    <connection from="372651347#0" to="372651347#1" fromLane="0" toLane="0"/>
    <connection from="372651347#0" to="-372651347#0" fromLane="0" toLane="0"/>

    <connection from="372651347#1" to="372651347#2" fromLane="0" toLane="0"/>
    <connection from="372651347#1" to="-372651349#3" fromLane="0" toLane="0"/>
    <connection from="372651347#1" to="-372651347#1" fromLane="0" toLane="0"/>

    <connection from="372651347#2" to="372651347#3" fromLane="0" toLane="0"/>
    <connection from="372651347#2" to="-372651347#2" fromLane="0" toLane="0"/>

    <connection from="372651347#3" to="372651347#4" fromLane="0" toLane="0"/>
    <connection from="372651347#3" to="-372651347#3" fromLane="0" toLane="0"/>

    <connection from="372651347#4" to="372651347#5" fromLane="0" toLane="0"/>
    <connection from="372651347#4" to="-372651347#4" fromLane="0" toLane="0"/>

    <connection from="372651347#5" to="372651347#6" fromLane="0" toLane="0"/>
    <connection from="372651347#5" to="372651349#0" fromLane="0" toLane="0"/>
    <connection from="372651347#5" to="-372651347#5" fromLane="0" toLane="0"/>

    <connection from="372651347#6" to="372651347#7" fromLane="0" toLane="0"/>
    <connection from="372651347#6" to="-372651347#6" fromLane="0" toLane="0"/>

    <connection from="372651347#7" to="507676804#0" fromLane="0" toLane="0"/>
    <connection from="372651347#7" to="372651348#0" fromLane="0" toLane="0"/>
    <connection from="372651347#7" to="-372651347#7" fromLane="0" toLane="0"/>

    <connection from="372651348#0" to="372651348#1" fromLane="0" toLane="0"/>
    <connection from="372651348#0" to="-372651348#0" fromLane="0" toLane="0"/>

    <connection from="372651348#1" to="370373765#3" fromLane="0" toLane="0"/>
    <connection from="372651348#1" to="372651348#3" fromLane="0" toLane="0"/>
    <connection from="372651348#1" to="370373769#5" fromLane="0" toLane="0"/>
    <connection from="372651348#1" to="-372651348#1" fromLane="0" toLane="0"/>

    <connection from="372651348#3" to="372651348#4" fromLane="0" toLane="0"/>
    <connection from="372651348#3" to="-372651348#3" fromLane="0" toLane="0"/>

    <connection from="372651348#4" to="481476643#1" fromLane="0" toLane="0"/>
    <connection from="372651348#4" to="-543965298#3" fromLane="0" toLane="0"/>
    <connection from="372651348#4" to="543965298#0" fromLane="0" toLane="0"/>
    <connection from="372651348#4" to="-372651348#4" fromLane="0" toLane="0"/>

    <connection from="372651349#0" to="372651349#1" fromLane="0" toLane="0"/>
    <connection from="372651349#0" to="-372651349#0" fromLane="0" toLane="0"/>

    <connection from="372651349#1" to="372651349#2" fromLane="0" toLane="0"/>
    <connection from="372651349#1" to="-372651349#1" fromLane="0" toLane="0"/>

    <connection from="372651349#2" to="372651349#3" fromLane="0" toLane="0"/>
    <connection from="372651349#2" to="-372651349#2" fromLane="0" toLane="0"/>

    <connection from="372651349#3" to="-372651347#1" fromLane="0" toLane="0"/>
    <connection from="372651349#3" to="372651347#2" fromLane="0" toLane="0"/>
    <connection from="372651349#3" to="-372651349#3" fromLane="0" toLane="0"/>

    <connection from="372651350#1" to="-505127440#0" fromLane="0" toLane="0"/>
    <connection from="372651350#1" to="505127440#1" fromLane="0" toLane="0"/>
    <connection from="372651350#1" to="372651351#1" fromLane="0" toLane="0"/>

    <connection from="372651351#1" to="370373768#2" fromLane="0" toLane="0"/>
    <connection from="372651351#1" to="-515362502#0" fromLane="0" toLane="0"/>
    <connection from="372651351#1" to="370373777#0" fromLane="0" toLane="0"/>
    <connection from="372651351#1" to="372651350#1" fromLane="0" toLane="0"/>

    <connection from="372651352" to="370373773" fromLane="0" toLane="0"/>
    <connection from="372651352" to="481476633" fromLane="0" toLane="0"/>

    <connection from="372651353#0" to="372651353#1" fromLane="0" toLane="0"/>

    <connection from="372651353#1" to="372651353#2" fromLane="0" toLane="0"/>

    <connection from="372651353#2" to="481476640#1" fromLane="0" toLane="0"/>

    <connection from="372651354#1" to="372651354#2" fromLane="0" toLane="0"/>
    <connection from="372651354#1" to="-372651354#1" fromLane="0" toLane="0"/>

    <connection from="372651354#2" to="372651354#3" fromLane="0" toLane="0"/>
    <connection from="372651354#2" to="-372651355" fromLane="0" toLane="0"/>
    <connection from="372651354#2" to="-372651354#2" fromLane="0" toLane="0"/>

    <connection from="372651354#3" to="372651355" fromLane="0" toLane="0"/>
    <connection from="372651354#3" to="-372651354#3" fromLane="0" toLane="0"/>

    <connection from="372651355" to="-372651354#2" fromLane="0" toLane="0"/>
    <connection from="372651355" to="372651354#3" fromLane="0" toLane="0"/>
    <connection from="372651355" to="-372651355" fromLane="0" toLane="0"/>

    <connection from="372651356" to="370373775#0" fromLane="0" toLane="0"/>
    <connection from="372651356" to="481476625" fromLane="0" toLane="0"/>
