<?xml version="1.0" encoding="UTF-8"?>

<!-- generated on 07/24/19 14:33:25 by Eclipse SUMO netedit Version v1_0_1+0383-8ba62d898b
<configuration xmlns:xsi="http://www.w3.org/2001/XMLSchema-instance" xsi:noNamespaceSchemaLocation="http://sumo.dlr.de/xsd/netconvertConfiguration.xsd">

    <input>
        <sumo-net-file value="flpoly.net.xml"/>
    </input>

    <output>
        <output-file value="flpoly.net.xml"/>
        <plain-output-prefix value="C:\sumo-windows10\projects\flpoly\data\Version2\flpoly"/>
    </output>

    <processing>
        <offset.disable-normalization value="true"/>
        <lefthand value="false"/>
    </processing>

    <junctions>
        <no-turnarounds value="true"/>
        <junctions.corner-detail value="0"/>
        <junctions.limit-turn-speed value="-1"/>
        <rectangular-lane-cut value="false"/>
    </junctions>

    <pedestrian>
        <walkingareas value="false"/>
    </pedestrian>

</configuration>
-->

<edges version="1.0" xmlns:xsi="http://www.w3.org/2001/XMLSchema-instance" xsi:noNamespaceSchemaLocation="http://sumo.dlr.de/xsd/edges_file.xsd">
    <edge id="-279425022#4" from="4951511098" to="4951472112" priority="1" type="highway.cycleway" numLanes="1" speed="5.56" shape="4827.52,1246.61 4812.24,1250.13 4796.97,1252.57" width="1.00" allow="bicycle"/>
    <edge id="-279425022#5" from="4971370281" to="4951511098" priority="1" type="highway.cycleway" numLanes="1" speed="5.56" shape="5189.16,1128.44 5178.75,1135.61 5132.78,1161.04 5091.25,1180.65 5053.10,1193.10 5016.78,1202.12 4908.98,1228.63 4827.52,1246.61" width="1.00" allow="bicycle"/>
    <edge id="-279425022#6" from="4971370280" to="4971370281" priority="1" type="highway.cycleway" numLanes="1" speed="5.56" width="1.00" allow="bicycle"/>
    <edge id="-372651344#1" from="4630836559" to="cluster_3761995407_3761995408" priority="2" type="highway.service" numLanes="1" speed="5.56" shape="4753.68,2062.29 4755.24,2068.90"/>
    <edge id="-372651344#2" from="3761995419" to="4630836559" priority="2" type="highway.service" numLanes="1" speed="5.56"/>
    <edge id="-372651344#3" from="3761995413" to="3761995419" priority="2" type="highway.service" numLanes="1" speed="5.56" shape="4707.15,2039.29 4729.33,2017.21 4735.32,2015.18 4739.92,2016.57 4744.25,2022.24 4750.64,2049.36"/>
    <edge id="-372651345" from="3761995419" to="3761995413" priority="2" type="highway.service" numLanes="1" speed="5.56" shape="4750.64,2049.36 4739.86,2050.74 4714.98,2053.48 4709.82,2052.09 4706.94,2048.98 4705.48,2044.72 4707.15,2039.29"/>
    <edge id="-372651346#2" from="3761995420" to="cluster_3740802588_3740802623_4744108012" priority="2" type="highway.service" numLanes="1" speed="6.71" shape="4858.02,1999.28 4878.92,2018.13 4880.70,2021.11"/>
    <edge id="-372651347#0" from="3761995421" to="3761995420" priority="2" type="highway.service" numLanes="1" speed="6.71"/>
    <edge id="-372651347#1" from="3761995439" to="3761995421" priority="2" type="highway.service" numLanes="1" speed="6.71"/>
    <edge id="-372651347#2" from="3761995422" to="3761995439" priority="2" type="highway.service" numLanes="1" speed="6.71"/>
    <edge id="-372651347#3" from="3761995423" to="3761995422" priority="2" type="highway.service" numLanes="1" speed="6.71"/>
    <edge id="-372651347#4" from="3761995424" to="3761995423" priority="2" type="highway.service" numLanes="1" speed="6.71"/>
    <edge id="-372651347#5" from="3761995430" to="3761995424" priority="2" type="highway.service" numLanes="1" speed="6.71"/>
    <edge id="-372651347#6" from="4744107983" to="3761995430" priority="2" type="highway.service" numLanes="1" speed="6.71"/>
    <edge id="-372651347#7" from="3761995426" to="4744107983" priority="2" type="highway.service" numLanes="1" speed="6.71"/>
    <edge id="-372651348#0" from="4744107981" to="3761995426" priority="2" type="highway.service" numLanes="1" speed="6.71"/>
    <edge id="-372651348#1" from="cluster_3740802631_3761995427_4744107945_4744107946_4744107947_4744107948" to="4744107981" priority="2" type="highway.service" numLanes="1" speed="6.71" shape="5082.08,1883.12 5075.90,1878.19"/>
    <edge id="-372651348#3" from="4744107944" to="cluster_3740802631_3761995427_4744107945_4744107946_4744107947_4744107948" priority="2" type="highway.service" numLanes="1" speed="6.71" shape="5095.32,1895.73 5089.08,1888.85"/>
    <edge id="-372651348#4" from="cluster_3761995429_4744107979_4744107980" to="4744107944" priority="2" type="highway.service" numLanes="1" speed="6.71" shape="5118.71,1911.99 5108.96,1909.21 5095.32,1895.73"/>
    <edge id="-372651349#0" from="3761995433" to="3761995430" priority="2" type="highway.service" numLanes="1" speed="6.71" shape="5016.96,1917.02 5048.13,1886.86 5048.39,1882.87 5036.29,1871.28"/>
    <edge id="-372651349#1" from="3761995434" to="3761995433" priority="2" type="highway.service" numLanes="1" speed="6.71"/>
    <edge id="-372651349#2" from="3761995435" to="3761995434" priority="2" type="highway.service" numLanes="1" speed="6.71"/>
    <edge id="-372651349#3" from="3761995439" to="3761995435" priority="2" type="highway.service" numLanes="1" speed="6.71" shape="4878.22,1984.29 4881.98,1989.67 4891.48,1997.29 4898.06,1996.95 4921.18,1984.68"/>
    <edge id="-372651354#1" from="4744105255" to="cluster_3740802683_3740802694" priority="2" type="highway.service" numLanes="1" speed="5.56" shape="4491.41,1826.59 4483.71,1825.74"/>
    <edge id="-372651354#2" from="3762016063" to="4744105255" priority="2" type="highway.service" numLanes="1" speed="5.56"/>
    <edge id="-372651354#3" from="3762016057" to="3762016063" priority="2" type="highway.service" numLanes="1" speed="5.56" shape="4538.91,1842.98 4539.57,1837.10 4536.93,1832.80 4533.09,1830.74 4504.37,1827.83"/>
    <edge id="-372651355" from="3762016063" to="3762016057" priority="2" type="highway.service" numLanes="1" speed="5.56" shape="4504.37,1827.83 4503.96,1863.80 4505.91,1867.93 4509.74,1870.49 4514.61,1870.81 4518.94,1868.01 4538.91,1842.98"/>
    <edge id="-468560169" from="4630836699" to="3740802678" priority="2" type="highway.service" numLanes="1" speed="5.56" shape="4421.78,1916.40 4444.31,1919.70 4480.88,1909.92" allow="delivery bicycle pedestrian"/>
    <edge id="-468560170" from="4630836700" to="4630836699" priority="2" type="highway.service" numLanes="1" speed="5.56" allow="delivery bicycle pedestrian"/>
    <edge id="-468560171" from="4630836699" to="4630836701" priority="2" type="highway.service" numLanes="1" speed="5.56" allow="delivery bicycle pedestrian"/>
    <edge id="-468560215" from="4630837100" to="4630837098" priority="2" type="highway.service" numLanes="1" speed="5.56" shape="5016.23,1238.23 5024.68,1236.36 5031.67,1270.13" allow="delivery bicycle pedestrian"/>
    <edge id="-468560216" from="4951511077" to="4630837101" priority="2" type="highway.service" numLanes="1" speed="5.56" shape="4867.27,1264.65 4877.16,1262.50 4891.31,1303.79" allow="delivery bicycle pedestrian"/>
    <edge id="-481476643#1" from="5276495324" to="cluster_3761995429_4744107979_4744107980" priority="2" type="highway.service" numLanes="1" speed="5.56" shape="5130.41,1869.41 5121.81,1899.78"/>
    <edge id="-481476643#2" from="4744107977" to="5276495324" priority="2" type="highway.service" numLanes="1" speed="5.56" shape="5116.91,1854.76 5131.26,1866.40 5130.41,1869.41"/>
    <edge id="-505127439" from="2836320080" to="4951511099" priority="6" type="highway.tertiary" numLanes="1" speed="13.41" shape="5054.20,1201.11 4946.84,1229.67 4829.24,1255.29" disallow="tram rail_urban rail rail_electric ship"/>
    <edge id="-505127440#0" from="cluster_2836320078_4630836955_4744105256" to="4951472111" priority="6" type="highway.tertiary" numLanes="1" speed="22.22" shape="4813.55,1258.41 4796.91,1262.16" disallow="tram rail_urban rail rail_electric ship"/>
    <edge id="-505127440#1" from="4951511099" to="cluster_2836320078_4630836955_4744105256" priority="6" type="highway.tertiary" numLanes="1" speed="22.22" shape="4829.24,1255.29 4813.55,1258.41" disallow="tram rail_urban rail rail_electric ship"/>
    <edge id="-505127444#0" from="4951511112" to="4951511114" priority="2" type="highway.service" numLanes="1" speed="6.71" shape="4551.22,1651.14 4539.43,1681.67 4555.35,1693.81"/>
    <edge id="-505127444#1" from="4951511110" to="4951511112" priority="2" type="highway.service" numLanes="1" speed="6.71" shape="4577.55,1598.08 4565.08,1621.22 4551.22,1651.14"/>
    <edge id="-505127444#2" from="4951511108" to="4951511110" priority="2" type="highway.service" numLanes="1" speed="6.71" shape="4608.82,1548.52 4592.66,1573.34 4577.55,1598.08"/>
    <edge id="-505127444#3" from="4951511105" to="4951511108" priority="2" type="highway.service" numLanes="1" speed="6.71" shape="4652.46,1526.40 4636.74,1512.24 4629.43,1520.41 4608.82,1548.52"/>
    <edge id="-505127445#0" from="4951511119" to="4951512835" priority="2" type="highway.service" numLanes="1" speed="6.71" shape="4545.47,1716.87 4548.06,1719.64 4551.17,1722.19" allow="emergency authority delivery bicycle pedestrian"/>
    <edge id="-505127445#1" from="cluster_4951511115_4951511116_4951511117" to="4951511119" priority="2" type="highway.service" numLanes="1" speed="6.71" shape="4518.48,1696.40 4522.29,1698.16 4545.47,1716.87"/>
    <edge id="-505127446#2" from="4951512828" to="cluster_4951512829_4951512830_4951512831" priority="2" type="highway.service" numLanes="1" speed="6.71" shape="4667.14,1508.36 4641.05,1485.91"/>
    <edge id="-505127446#3" from="4630837105" to="4951512828" priority="2" type="highway.service" numLanes="1" speed="6.71" shape="4676.71,1518.62 4671.16,1512.34 4667.14,1508.36" allow="emergency authority delivery bicycle pedestrian"/>
    <edge id="-505127447#0" from="5033203538" to="5033203549" priority="2" type="highway.service" numLanes="1" speed="6.71" shape="4887.68,1358.76 4902.06,1353.56 4965.91,1330.32"/>
    <edge id="-505127447#1" from="4951511092" to="5033203538" priority="2" type="highway.service" numLanes="1" speed="6.71" allow="delivery bicycle pedestrian"/>
    <edge id="-505127447#10" from="4951512826" to="4951511105" priority="2" type="highway.service" numLanes="1" speed="6.71" shape="4625.92,1560.56 4641.94,1539.32 4652.46,1526.40"/>
    <edge id="-505127447#11" from="4951512824" to="4951512826" priority="2" type="highway.service" numLanes="1" speed="6.71" shape="4595.96,1609.00 4609.60,1585.27 4625.92,1560.56"/>
    <edge id="-505127447#12" from="4951512822" to="4951512824" priority="2" type="highway.service" numLanes="1" speed="6.71" shape="4570.68,1659.41 4580.22,1639.19 4595.96,1609.00"/>
    <edge id="-505127447#13" from="4951511114" to="4951512822" priority="2" type="highway.service" numLanes="1" speed="6.71" shape="4555.35,1693.81 4559.86,1683.22 4570.68,1659.41"/>
    <edge id="-505127447#14" from="4951511074" to="4951511114" priority="2" type="highway.service" numLanes="1" speed="6.71" shape="4549.25,1708.11 4551.43,1703.06 4555.35,1693.81"/>
    <edge id="-505127447#15" from="4951511119" to="4951511074" priority="2" type="highway.service" numLanes="1" speed="6.71" allow="delivery bicycle pedestrian"/>
    <edge id="-505127447#2" from="cluster_4951511094_5033203533" to="4951511092" priority="2" type="highway.service" numLanes="1" speed="6.71" shape="4868.75,1366.33 4879.86,1361.58"/>
    <edge id="-505127447#4" from="5033203539" to="cluster_4951511094_5033203533" priority="2" type="highway.service" numLanes="1" speed="6.71" shape="4848.54,1376.28 4862.13,1369.17"/>
    <edge id="-505127447#5" from="5033203548" to="5033203539" priority="2" type="highway.service" numLanes="1" speed="6.71" shape="4681.73,1493.39 4691.72,1482.90 4714.23,1463.09 4759.04,1428.46 4807.02,1397.99 4848.54,1376.28"/>
    <edge id="-505127447#6" from="5033203555" to="5033203548" priority="2" type="highway.service" numLanes="1" speed="6.71"/>
    <edge id="-505127447#7" from="4951512828" to="5033203555" priority="2" type="highway.service" numLanes="1" speed="6.71" allow="delivery bicycle pedestrian"/>
    <edge id="-505127447#8" from="4951511086" to="4951512828" priority="2" type="highway.service" numLanes="1" speed="6.71"/>
    <edge id="-505127447#9" from="4951511105" to="4951511086" priority="2" type="highway.service" numLanes="1" speed="6.71"/>
    <edge id="-507676804#0" from="4744107984" to="3761995426" priority="2" type="highway.service" numLanes="1" speed="6.71" allow="emergency authority delivery bicycle pedestrian"/>
    <edge id="-507676804#1" from="5033202878" to="4744107984" priority="2" type="highway.service" numLanes="1" speed="6.71" allow="emergency authority delivery bicycle pedestrian"/>
    <edge id="-507676804#2" from="3761995425" to="5033202878" priority="2" type="highway.service" numLanes="1" speed="6.71" allow="emergency authority delivery bicycle pedestrian"/>
    <edge id="-515362459" from="5033202877" to="5033202878" priority="2" type="highway.service" numLanes="1" speed="6.71" allow="emergency authority delivery bicycle pedestrian"/>
    <edge id="-515362502#0" from="cluster_3740802688_3740802689_3761995443_4951472116_4951472117_4951511095" to="cluster_4951511094_5033203533" priority="2" type="highway.service" numLanes="1" speed="6.71" shape="4844.80,1339.03 4847.73,1343.99 4868.75,1366.33"/>
    <edge id="-515362505" from="5033203549" to="5033203538" priority="2" type="highway.service" numLanes="1" speed="6.71" shape="4965.91,1330.32 4961.30,1312.54 4938.43,1318.98 4907.96,1330.46 4880.89,1339.56 4887.68,1358.76"/>
    <edge id="-515362508" from="5033203539" to="5033203548" priority="2" type="highway.service" numLanes="1" speed="6.71" shape="4848.54,1376.28 4830.46,1360.87 4816.03,1367.53 4792.68,1380.53 4753.33,1404.91 4726.62,1425.54 4700.16,1446.42 4683.41,1461.47 4666.80,1478.23 4681.73,1493.39"/>
    <edge id="-543965298#0" from="5259188959" to="cluster_3761995429_4744107979_4744107980" priority="2" type="highway.service" numLanes="1" speed="5.56" shape="5085.42,1931.63 5085.86,1926.06 5118.71,1911.99" allow="emergency authority delivery bicycle pedestrian"/>
    <edge id="-543965298#1" from="5258324942" to="5259188959" priority="2" type="highway.service" numLanes="1" speed="5.56" shape="5123.59,1956.68 5095.73,1967.51 5083.82,1942.16 5085.42,1931.63" allow="emergency authority delivery bicycle pedestrian"/>
    <edge id="-543965298#2" from="5258324944" to="5258324942" priority="2" type="highway.service" numLanes="1" speed="5.56" allow="delivery bicycle pedestrian"/>
    <edge id="-543965298#3" from="cluster_3761995429_4744107979_4744107980" to="5258324944" priority="2" type="highway.service" numLanes="1" speed="5.56" shape="5118.71,1911.99 5123.48,1912.80 5133.48,1916.47 5142.40,1925.44 5138.15,1951.03 5131.13,1953.75" allow="emergency authority delivery bicycle pedestrian"/>
    <edge id="-543965299" from="5258324943" to="5258324942" priority="2" type="highway.service" numLanes="1" speed="5.56" allow="emergency authority delivery bicycle pedestrian"/>
    <edge id="-543965300" from="5258324945" to="5258324944" priority="2" type="highway.service" numLanes="1" speed="5.56" allow="emergency authority delivery bicycle pedestrian"/>
    <edge id="-545951175#1" from="4744105254" to="cluster_3740802574_3740802642" priority="2" type="highway.service" numLanes="1" speed="5.56" shape="5202.46,1659.25 5209.42,1661.36" allow="delivery bicycle pedestrian"/>
    <edge id="-595186068" from="3740802687" to="5673193451" priority="2" type="highway.service" numLanes="1" speed="5.56" shape="4496.88,1713.30 4494.95,1711.70 4490.73,1710.95 4487.04,1710.45 4482.85,1713.63 4480.28,1723.34 4477.98,1732.78 4476.71,1739.61 4479.90,1744.82 4486.81,1748.83" allow="delivery bicycle pedestrian"/>
    <edge id="279425010#2" from="4971370278" to="cluster_2836320417_3740802206_3740802537_4744105259_4744105260_4971370282_4971370283" priority="6" type="highway.tertiary" numLanes="2" speed="22.22" shape="5227.06,1126.16 5214.89,1135.07" spreadType="center" disallow="tram rail_urban rail rail_electric ship"/>
    <edge id="279425015#0" from="2836320416" to="cluster_2836320417_3740802206_3740802537_4744105259_4744105260_4971370282_4971370283" priority="6" type="highway.tertiary" numLanes="2" speed="22.22" shape="5130.12,1170.40 5163.49,1152.23 5185.43,1139.34 5190.65,1135.86" spreadType="center" disallow="tram rail_urban rail rail_electric ship"/>
    <edge id="279425015#2" from="cluster_2836320417_3740802206_3740802537_4744105259_4744105260_4971370282_4971370283" to="4971370279" priority="6" type="highway.tertiary" numLanes="2" speed="22.22" shape="5200.34,1129.39 5217.98,1116.10" spreadType="center" disallow="tram rail_urban rail rail_electric ship"/>
    <edge id="279425022#4" from="4951472112" to="4951511098" priority="1" type="highway.cycleway" numLanes="1" speed="5.56" shape="4796.97,1252.57 4812.24,1250.13 4827.52,1246.61" width="1.00" allow="bicycle"/>
    <edge id="279425022#5" from="4951511098" to="4971370281" priority="1" type="highway.cycleway" numLanes="1" speed="5.56" shape="4827.52,1246.61 4908.98,1228.63 5016.78,1202.12 5053.10,1193.10 5091.25,1180.65 5132.78,1161.04 5178.75,1135.61 5189.16,1128.44" width="1.00" allow="bicycle"/>
    <edge id="279425022#6" from="4971370281" to="4971370280" priority="1" type="highway.cycleway" numLanes="1" speed="5.56" width="1.00" allow="bicycle"/>
    <edge id="370373762#2" from="cluster_2836320417_3740802206_3740802537_4744105259_4744105260_4971370282_4971370283" to="3740802212" priority="5" type="highway.unclassified" numLanes="1" speed="11.18" shape="5218.16,1140.42 5248.75,1185.83 5254.71,1192.41 5261.49,1197.19 5270.37,1199.33" spreadType="center" disallow="tram rail_urban rail rail_electric ship"/>
    <edge id="370373763#0" from="3740802527" to="3740802528" priority="5" type="highway.unclassified" numLanes="1" speed="13.89" spreadType="center" disallow="tram rail_urban rail rail_electric ship"/>
    <edge id="370373763#1" from="3740802528" to="3740802558" priority="5" type="highway.unclassified" numLanes="1" speed="13.89" shape="5220.60,1234.24 5225.77,1233.12 5231.33,1230.04 5238.25,1224.01" spreadType="center" disallow="tram rail_urban rail rail_electric ship"/>
    <edge id="370373765#0" from="3740802628" to="cluster_3740802631_3761995427_4744107945_4744107946_4744107947_4744107948" priority="5" type="highway.unclassified" numLanes="1" speed="11.18" shape="5006.81,1952.24 5037.44,1926.88 5063.36,1902.86 5073.56,1891.03" spreadType="center" disallow="tram rail_urban rail rail_electric ship"/>
    <edge id="370373765#3" from="cluster_3740802631_3761995427_4744107945_4744107946_4744107947_4744107948" to="cluster_3740802574_3740802642" priority="5" type="highway.unclassified" numLanes="1" speed="11.18" shape="5090.42,1873.10 5094.71,1867.79 5112.99,1844.87 5127.87,1825.38 5141.16,1805.11 5156.01,1781.42 5170.59,1755.90 5176.81,1743.02 5183.82,1727.25 5193.93,1704.12 5202.45,1681.40 5209.42,1661.36" spreadType="center" disallow="tram rail_urban rail rail_electric ship"/>
    <edge id="370373765#4" from="cluster_3740802574_3740802642" to="3740802542" priority="5" type="highway.unclassified" numLanes="1" speed="11.18" shape="5209.42,1661.36 5211.00,1655.91 5214.32,1644.51 5219.98,1624.82 5225.84,1596.73 5231.70,1568.66 5234.98,1547.41 5237.42,1520.94 5238.01,1513.69 5242.52,1458.01 5247.43,1406.36 5249.86,1377.26 5257.47,1294.20" spreadType="center" disallow="tram rail_urban rail rail_electric ship"/>
    <edge id="370373766" from="3740802554" to="3740802558" priority="5" type="highway.unclassified" numLanes="1" speed="11.18" shape="5242.43,1246.34 5239.95,1240.79 5238.75,1234.71 5237.87,1230.20 5238.25,1224.01" spreadType="center" disallow="tram rail_urban rail rail_electric ship"/>
    <edge id="370373767#0" from="4744107974" to="cluster_3740802688_3740802689_3761995443_4951472116_4951472117_4951511095" priority="5" type="highway.unclassified" numLanes="1" speed="11.18" shape="5206.23,1247.72 4994.88,1287.83 4949.09,1297.73 4906.53,1309.43 4861.70,1326.47 4855.96,1328.07" spreadType="center" disallow="tram rail_urban rail rail_electric ship"/>
    <edge id="370373768#2" from="cluster_3740802688_3740802689_3761995443_4951472116_4951472117_4951511095" to="4630837101" priority="5" type="highway.unclassified" numLanes="1" speed="11.18" shape="4851.50,1317.39 4871.17,1310.67 4891.31,1303.79" spreadType="center" disallow="tram rail_urban rail rail_electric ship"/>
    <edge id="370373768#3" from="4630837101" to="4630837098" priority="5" type="highway.unclassified" numLanes="1" speed="11.18" shape="4891.31,1303.79 4904.85,1299.18 4930.25,1291.93 4955.89,1284.68 4970.55,1281.78 5006.03,1274.75 5031.67,1270.13" spreadType="center" disallow="tram rail_urban rail rail_electric ship"/>
    <edge id="370373768#4" from="4630837098" to="3740802527" priority="5" type="highway.unclassified" numLanes="1" speed="11.18" shape="5031.67,1270.13 5054.81,1265.97 5136.10,1250.58 5203.89,1237.33" spreadType="center" disallow="tram rail_urban rail rail_electric ship"/>
    <edge id="370373769#0" from="3740802526" to="cluster_3740802574_3740802642" priority="5" type="highway.unclassified" numLanes="1" speed="11.18" shape="5267.47,1294.47 5244.75,1540.20 5240.40,1574.90 5236.63,1593.86 5233.30,1608.48 5222.19,1653.71 5218.41,1663.87" spreadType="center" disallow="tram rail_urban rail rail_electric ship"/>
    <edge id="370373769#1" from="cluster_3740802574_3740802642" to="4744107977" priority="5" type="highway.unclassified" numLanes="1" speed="11.18" shape="5218.41,1663.87 5212.23,1684.61 5203.17,1707.73 5195.93,1728.22 5186.33,1747.41 5162.92,1790.81 5142.87,1822.38 5121.19,1849.52 5116.91,1854.76" spreadType="center" disallow="tram rail_urban rail rail_electric ship"/>
    <edge id="370373769#2" from="4744107977" to="cluster_3740802631_3761995427_4744107945_4744107946_4744107947_4744107948" priority="5" type="highway.unclassified" numLanes="1" speed="11.18" shape="5116.91,1854.76 5097.18,1878.95" spreadType="center" disallow="tram rail_urban rail rail_electric ship"/>
    <edge id="370373769#5" from="cluster_3740802631_3761995427_4744107945_4744107946_4744107947_4744107948" to="cluster_3740802588_3740802623_4744108012" priority="5" type="highway.unclassified" numLanes="1" speed="11.18" shape="5081.37,1898.32 5078.10,1901.44 5048.81,1931.51 5023.95,1954.48 4997.99,1972.75 4970.21,1992.06 4943.46,2008.24 4892.89,2034.58" spreadType="center" disallow="tram rail_urban rail rail_electric ship"/>
    <edge id="370373769#6" from="cluster_3740802588_3740802623_4744108012" to="cluster_3761995407_3761995408" priority="5" type="highway.unclassified" numLanes="1" speed="11.18" shape="4892.89,2034.58 4870.50,2044.90 4836.35,2057.71 4777.99,2074.89 4757.39,2079.34" spreadType="center" disallow="tram rail_urban rail rail_electric ship"/>
    <edge id="370373769#7" from="cluster_3761995407_3761995408" to="3740802597" priority="5" type="highway.unclassified" numLanes="1" speed="11.18" shape="4757.39,2079.34 4740.39,2083.01 4711.97,2085.84 4687.45,2084.17 4665.58,2081.19 4632.86,2073.28 4605.38,2062.16 4598.82,2059.15" spreadType="center" disallow="tram rail_urban rail rail_electric ship"/>
    <edge id="370373770" from="3740802610" to="3740802616" priority="5" type="highway.unclassified" numLanes="1" speed="11.18" shape="4603.27,2049.96 4607.43,2052.50 4629.62,2061.78 4648.37,2067.68 4667.62,2072.00 4690.03,2074.99 4711.09,2074.57 4732.95,2073.11" spreadType="center" disallow="tram rail_urban rail rail_electric ship"/>
    <edge id="370373771#0" from="3740802616" to="cluster_3761995407_3761995408" priority="5" type="highway.unclassified" numLanes="1" speed="11.18" shape="4732.95,2073.11 4750.31,2069.85 4755.24,2068.90" spreadType="center" disallow="tram rail_urban rail rail_electric ship"/>
    <edge id="370373771#1" from="cluster_3761995407_3761995408" to="cluster_3740802588_3740802623_4744108012" priority="5" type="highway.unclassified" numLanes="1" speed="11.18" shape="4755.24,2068.90 4772.93,2065.50 4802.89,2057.69 4827.07,2049.92 4886.24,2026.94" spreadType="center" disallow="tram rail_urban rail rail_electric ship"/>
    <edge id="370373771#2" from="cluster_3740802588_3740802623_4744108012" to="3740802628" priority="5" type="highway.unclassified" numLanes="1" speed="11.18" shape="4886.24,2026.94 4900.87,2019.54 4941.81,1998.81 4962.79,1984.78 4986.38,1968.37 5006.81,1952.24" spreadType="center" disallow="tram rail_urban rail rail_electric ship"/>
    <edge id="370373773" from="3740802652" to="3740802656" priority="5" type="highway.unclassified" numLanes="1" speed="11.18" shape="4583.28,2049.24 4558.78,2032.58 4541.69,2018.48 4525.49,1999.73 4521.73,1993.84" spreadType="center" disallow="tram rail_urban rail rail_electric ship"/>
    <edge id="370373774" from="3740802666" to="3740802603" priority="5" type="highway.unclassified" numLanes="1" speed="11.18" shape="4529.15,1987.22 4532.50,1992.20 4537.60,1998.86 4548.48,2010.57 4563.06,2024.36 4572.33,2031.11 4582.65,2037.58 4588.92,2041.37" spreadType="center" disallow="tram rail_urban rail rail_electric ship"/>
    <edge id="370373775#0" from="3740802661" to="3740802678" priority="5" type="highway.unclassified" numLanes="1" speed="11.18" shape="4510.85,1978.71 4500.20,1961.13 4491.65,1943.90 4485.20,1925.61 4480.88,1909.92" spreadType="center" disallow="tram rail_urban rail rail_electric ship"/>
    <edge id="370373775#1" from="3740802678" to="cluster_3740802683_3740802694" priority="5" type="highway.unclassified" numLanes="1" speed="11.18" shape="4480.88,1909.92 4476.81,1893.70 4475.16,1883.75 4473.11,1849.67 4474.49,1824.76" spreadType="center" disallow="tram rail_urban rail rail_electric ship"/>
    <edge id="370373776#0" from="cluster_3740802683_3740802694" to="5673193451" priority="5" type="highway.unclassified" numLanes="1" speed="11.18" shape="4474.49,1824.76 4476.78,1803.66 4483.28,1764.72 4486.81,1748.83" spreadType="center" disallow="tram rail_urban rail rail_electric ship"/>
    <edge id="370373776#1" from="5673193451" to="3740802687" priority="5" type="highway.unclassified" numLanes="1" speed="11.18" shape="4486.81,1748.83 4489.68,1735.98 4496.88,1713.30" spreadType="center" disallow="tram rail_urban rail rail_electric ship"/>
    <edge id="370373776#2" from="3740802687" to="cluster_4951511115_4951511116_4951511117" priority="5" type="highway.unclassified" numLanes="1" speed="11.18" shape="4496.88,1713.30 4505.43,1691.09" spreadType="center" disallow="tram rail_urban rail rail_electric ship"/>
    <edge id="370373776#3" from="cluster_4951511115_4951511116_4951511117" to="cluster_4951512829_4951512830_4951512831" priority="5" type="highway.unclassified" numLanes="1" speed="11.18" shape="4505.43,1691.09 4530.56,1625.82 4546.79,1589.66 4572.48,1548.19 4597.98,1513.14 4628.67,1475.56" spreadType="center" disallow="tram rail_urban rail rail_electric ship"/>
    <edge id="370373776#4" from="cluster_4951512829_4951512830_4951512831" to="4951472107" priority="5" type="highway.unclassified" numLanes="1" speed="11.18" shape="4628.67,1475.56 4632.23,1471.19 4663.50,1438.63 4682.72,1422.03 4696.21,1410.38 4747.99,1373.21 4754.99,1368.76 4782.18,1351.52 4814.34,1334.00 4818.99,1332.09" spreadType="center" disallow="tram rail_urban rail rail_electric ship"/>
    <edge id="370373776#5" from="4951472107" to="cluster_3740802688_3740802689_3761995443_4951472116_4951472117_4951511095" priority="5" type="highway.unclassified" numLanes="1" speed="11.18" shape="4818.99,1332.09 4827.16,1327.49" spreadType="center" disallow="tram rail_urban rail rail_electric ship"/>
    <edge id="370373777#0" from="cluster_3740802688_3740802689_3761995443_4951472116_4951472117_4951511095" to="4951472108" priority="5" type="highway.unclassified" numLanes="1" speed="11.18" shape="4841.99,1334.70 4823.62,1341.93" spreadType="center" disallow="tram rail_urban rail rail_electric ship"/>
    <edge id="370373777#1" from="4951472108" to="cluster_4951512829_4951512830_4951512831" priority="5" type="highway.unclassified" numLanes="1" speed="11.18" shape="4823.62,1341.93 4812.27,1347.78 4789.73,1359.43 4751.94,1381.84 4702.57,1419.98 4678.31,1440.77 4671.58,1446.53 4640.94,1477.49 4636.95,1482.36" spreadType="center" disallow="tram rail_urban rail rail_electric ship"/>
    <edge id="370373777#2" from="cluster_4951512829_4951512830_4951512831" to="cluster_4951511115_4951511116_4951511117" priority="5" type="highway.unclassified" numLanes="1" speed="11.18" shape="4636.95,1482.36 4605.54,1520.73 4581.79,1554.15 4557.74,1593.15 4537.74,1631.56 4514.38,1694.66" spreadType="center" disallow="tram rail_urban rail rail_electric ship"/>
    <edge id="370373777#3" from="cluster_4951511115_4951511116_4951511117" to="cluster_3740802683_3740802694" priority="5" type="highway.unclassified" numLanes="1" speed="11.18" shape="4514.38,1694.66 4499.93,1733.70 4496.88,1749.71 4489.50,1786.71 4485.67,1808.79 4483.71,1825.74" spreadType="center" disallow="tram rail_urban rail rail_electric ship"/>
    <edge id="370373777#4" from="cluster_3740802683_3740802694" to="3740802702" priority="5" type="highway.unclassified" numLanes="1" speed="11.18" shape="4483.71,1825.74 4482.86,1852.88 4483.69,1872.76 4485.85,1889.73 4489.68,1909.09 4496.67,1929.48 4502.83,1945.16 4514.39,1967.81 4518.29,1973.98" spreadType="center" disallow="tram rail_urban rail rail_electric ship"/>
    <edge id="372651339#0" from="3740802558" to="3740802534" priority="5" type="highway.unclassified" numLanes="1" speed="11.18" spreadType="center" disallow="tram rail_urban rail rail_electric ship"/>
    <edge id="372651339#1" from="3740802534" to="cluster_2836320417_3740802206_3740802537_4744105259_4744105260_4971370282_4971370283" priority="5" type="highway.unclassified" numLanes="1" speed="11.18" shape="5241.78,1213.70 5242.14,1204.88 5239.33,1197.13 5210.69,1154.50 5206.43,1148.30" spreadType="center" disallow="tram rail_urban rail rail_electric ship"/>