<?xml version="1.0" encoding="UTF-8"?>

<!-- generated on 05/21/19 13:14:27 by Eclipse SUMO netedit Version v1_0_1+0383-8ba62d898b
<configuration xmlns:xsi="http://www.w3.org/2001/XMLSchema-instance" xsi:noNamespaceSchemaLocation="http://sumo.dlr.de/xsd/netconvertConfiguration.xsd">

    <input>
        <sumo-net-file value="flpoly.net.xml"/>
    </input>

    <output>
        <output-file value="flpoly.net.xml"/>
    </output>

    <processing>
        <offset.disable-normalization value="true"/>
        <lefthand value="false"/>
    </processing>

    <junctions>
        <no-turnarounds value="true"/>
        <junctions.corner-detail value="0"/>
        <junctions.limit-turn-speed value="-1"/>
        <rectangular-lane-cut value="false"/>
    </junctions>

    <pedestrian>
        <walkingareas value="false"/>
    </pedestrian>

</configuration>
-->

<net version="1.0" xmlns:xsi="http://www.w3.org/2001/XMLSchema-instance" xsi:noNamespaceSchemaLocation="http://sumo.dlr.de/xsd/net_file.xsd">

    <location netOffset="-411782.56,-3112256.38" convBoundary="4417.87,1111.45,5308.76,2085.84" origBoundary="-81.898369,28.133266,-81.826609,28.157407" projParameter="+proj=utm +zone=17 +ellps=WGS84 +datum=WGS84 +units=m +no_defs"/>

    <type id="highway.bridleway" priority="1" numLanes="1" speed="2.78" allow="pedestrian" oneway="1" width="2.00"/>
    <type id="highway.bus_guideway" priority="1" numLanes="1" speed="8.33" allow="bus" oneway="1"/>
    <type id="highway.cycleway" priority="1" numLanes="1" speed="5.56" allow="bicycle" oneway="0" width="1.00"/>
    <type id="highway.footway" priority="1" numLanes="1" speed="2.78" allow="pedestrian" oneway="1" width="2.00"/>
    <type id="highway.ford" priority="1" numLanes="1" speed="2.78" allow="army" oneway="0"/>
    <type id="highway.living_street" priority="3" numLanes="1" speed="2.78" disallow="tram rail_urban rail rail_electric ship" oneway="0"/>
    <type id="highway.motorway" priority="13" numLanes="2" speed="44.44" allow="private emergency authority army vip passenger hov taxi bus coach delivery truck trailer motorcycle evehicle custom1 custom2" oneway="1"/>
    <type id="highway.motorway_link" priority="12" numLanes="1" speed="22.22" allow="private emergency authority army vip passenger hov taxi bus coach delivery truck trailer motorcycle evehicle custom1 custom2" oneway="1"/>
    <type id="highway.path" priority="1" numLanes="1" speed="2.78" allow="bicycle pedestrian" oneway="1" width="2.00"/>
    <type id="highway.pedestrian" priority="1" numLanes="1" speed="2.78" allow="pedestrian" oneway="1" width="2.00"/>
    <type id="highway.primary" priority="9" numLanes="2" speed="27.78" disallow="tram rail_urban rail rail_electric ship" oneway="0"/>
    <type id="highway.primary_link" priority="8" numLanes="1" speed="22.22" disallow="tram rail_urban rail rail_electric ship" oneway="0"/>
    <type id="highway.raceway" priority="14" numLanes="2" speed="83.33" allow="vip" oneway="0"/>
    <type id="highway.residential" priority="4" numLanes="1" speed="13.89" disallow="tram rail_urban rail rail_electric ship" oneway="0"/>
    <type id="highway.secondary" priority="7" numLanes="2" speed="27.78" disallow="tram rail_urban rail rail_electric ship" oneway="0"/>
    <type id="highway.secondary_link" priority="6" numLanes="1" speed="22.22" disallow="tram rail_urban rail rail_electric ship" oneway="0"/>
    <type id="highway.service" priority="2" numLanes="1" speed="5.56" allow="delivery bicycle pedestrian" oneway="0"/>
    <type id="highway.services" priority="1" numLanes="1" speed="8.33" disallow="tram rail_urban rail rail_electric ship" oneway="0"/>
    <type id="highway.stairs" priority="1" numLanes="1" speed="1.39" allow="pedestrian" oneway="1" width="2.00"/>
    <type id="highway.step" priority="1" numLanes="1" speed="1.39" allow="pedestrian" oneway="1" width="2.00"/>
    <type id="highway.steps" priority="1" numLanes="1" speed="1.39" allow="pedestrian" oneway="1" width="2.00"/>
    <type id="highway.tertiary" priority="6" numLanes="1" speed="22.22" disallow="tram rail_urban rail rail_electric ship" oneway="0"/>
    <type id="highway.tertiary_link" priority="5" numLanes="1" speed="22.22" disallow="tram rail_urban rail rail_electric ship" oneway="0"/>
    <type id="highway.track" priority="1" numLanes="1" speed="5.56" disallow="tram rail_urban rail rail_electric ship" oneway="0"/>
    <type id="highway.trunk" priority="11" numLanes="2" speed="27.78" disallow="tram rail_urban rail rail_electric bicycle pedestrian ship" oneway="0"/>
    <type id="highway.trunk_link" priority="10" numLanes="1" speed="22.22" disallow="tram rail_urban rail rail_electric bicycle pedestrian ship" oneway="0"/>
    <type id="highway.unclassified" priority="5" numLanes="1" speed="13.89" disallow="tram rail_urban rail rail_electric ship" oneway="0"/>
    <type id="highway.unsurfaced" priority="1" numLanes="1" speed="8.33" disallow="tram rail_urban rail rail_electric ship" oneway="0"/>
    <type id="railway.light_rail" priority="15" numLanes="1" speed="27.78" allow="rail_urban" oneway="1"/>
    <type id="railway.preserved" priority="15" numLanes="1" speed="27.78" allow="rail" oneway="1"/>
    <type id="railway.rail" priority="15" numLanes="1" speed="83.33" allow="rail rail_electric" oneway="1"/>
    <type id="railway.subway" priority="15" numLanes="1" speed="27.78" allow="rail_urban" oneway="1"/>
    <type id="railway.tram" priority="15" numLanes="1" speed="13.89" allow="tram" oneway="1"/>

    <edge id=":2836320080_0" function="internal">
        <lane id=":2836320080_0_0" index="0" disallow="tram rail_urban rail rail_electric ship" speed="13.41" length="0.71" shape="5054.73,1202.69 5054.03,1202.81"/>
    </edge>
    <edge id=":2836320080_1" function="internal">
        <lane id=":2836320080_1_0" index="0" disallow="tram rail_urban rail rail_electric ship" speed="13.41" length="2.41" shape="5054.73,1202.69 5053.27,1202.36 5052.59,1201.74"/>
    </edge>
    <edge id=":2836320080_4" function="internal">
        <lane id=":2836320080_4_0" index="0" speed="13.41" length="2.41" shape="5052.59,1201.74 5052.68,1200.82 5053.54,1199.60"/>
    </edge>
    <edge id=":2836320080_2" function="internal">
        <lane id=":2836320080_2_0" index="0" disallow="tram rail_urban rail rail_electric ship" speed="13.41" length="0.36" shape="5053.21,1199.72 5053.31,1199.69 5053.38,1199.67 5053.44,1199.64 5053.54,1199.60"/>
    </edge>
    <edge id=":2836320080_3" function="internal">
        <lane id=":2836320080_3_0" index="0" disallow="tram rail_urban rail rail_electric ship" speed="13.41" length="2.34" shape="5053.21,1199.72 5054.57,1200.18 5055.16,1200.85"/>
    </edge>
    <edge id=":2836320080_5" function="internal">
        <lane id=":2836320080_5_0" index="0" speed="13.41" length="2.34" shape="5055.16,1200.85 5054.98,1201.73 5054.03,1202.81"/>
    </edge>
    <edge id=":2836320416_0" function="internal">
        <lane id=":2836320416_0_0" index="0" disallow="tram rail_urban rail rail_electric ship" speed="17.81" length="7.28" shape="5126.82,1171.65 5128.66,1170.68 5129.71,1169.64 5130.72,1168.53 5132.45,1167.31"/>
        <lane id=":2836320416_0_1" index="1" disallow="tram rail_urban rail rail_electric ship" speed="17.81" length="7.28" shape="5126.82,1171.65 5128.93,1171.11 5130.48,1171.05 5131.99,1170.91 5133.98,1170.12"/>
    </edge>
    <edge id=":3740802212_0" function="internal">
        <lane id=":3740802212_0_0" index="0" disallow="tram rail_urban rail rail_electric ship" speed="11.18" length="9.96" shape="5262.56,1197.45 5272.22,1199.86"/>
    </edge>
    <edge id=":3740802212_1" function="internal">
        <lane id=":3740802212_1_0" index="0" disallow="tram rail_urban rail rail_electric ship" speed="11.18" length="9.99" shape="5262.57,1201.27 5265.42,1200.36 5267.42,1199.62 5269.41,1199.35 5272.22,1199.86"/>
    </edge>
    <edge id=":3740802222_0" function="internal">
        <lane id=":3740802222_0_0" index="0" disallow="tram rail_urban rail rail_electric ship" speed="12.54" length="6.89" shape="5278.82,1258.46 5277.10,1259.48 5276.12,1260.47 5275.34,1261.69 5274.23,1263.42"/>
    </edge>
    <edge id=":3740802222_1" function="internal">
        <lane id=":3740802222_1_0" index="0" disallow="tram rail_urban rail rail_electric ship" speed="11.18" length="6.91" shape="5278.82,1258.46 5276.96,1259.27 5275.60,1259.59 5274.17,1259.69 5272.12,1259.84"/>
    </edge>
    <edge id=":3740802525_0" function="internal">
        <lane id=":3740802525_0_0" index="0" disallow="tram rail_urban rail rail_electric ship" speed="13.89" length="5.14" shape="5269.26,1275.90 5269.00,1277.40 5268.85,1278.43 5268.73,1279.47 5268.60,1280.99"/>
    </edge>
    <edge id=":3740802526_0" function="internal">
        <lane id=":3740802526_0_0" index="0" disallow="tram rail_urban rail rail_electric ship" speed="12.54" length="0.30" shape="5267.48,1294.32 5267.46,1294.62"/>
    </edge>
    <edge id=":3740802527_0" function="internal">
        <lane id=":3740802527_0_0" index="0" disallow="tram rail_urban rail rail_electric ship" speed="12.54" length="0.29" shape="5203.75,1237.36 5204.03,1237.30"/>
    </edge>
    <edge id=":3740802528_0" function="internal">
        <lane id=":3740802528_0_0" index="0" disallow="tram rail_urban rail rail_electric ship" speed="13.89" length="5.19" shape="5218.09,1234.70 5223.17,1233.68"/>
    </edge>
    <edge id=":3740802534_0" function="internal">
        <lane id=":3740802534_0_0" index="0" disallow="tram rail_urban rail rail_electric ship" speed="11.18" length="6.91" shape="5241.14,1215.57 5241.72,1213.62 5241.92,1212.23 5241.95,1210.81 5241.98,1208.76"/>
    </edge>
    <edge id=":3740802534_1" function="internal">
        <lane id=":3740802534_1_0" index="0" disallow="tram rail_urban rail rail_electric ship" speed="11.18" length="6.87" shape="5241.14,1215.57 5241.94,1213.76 5242.83,1212.70 5244.01,1211.85 5245.69,1210.67"/>
    </edge>
    <edge id=":3740802542_0" function="internal">
        <lane id=":3740802542_0_0" index="0" disallow="tram rail_urban rail rail_electric ship" speed="12.54" length="0.29" shape="5257.46,1294.35 5257.49,1294.05"/>
    </edge>
    <edge id=":3740802543_0" function="internal">
        <lane id=":3740802543_0_0" index="0" disallow="tram rail_urban rail rail_electric ship" speed="13.89" length="5.12" shape="5258.93,1280.18 5259.27,1275.07"/>
    </edge>
    <edge id=":3740802547_0" function="internal">
        <lane id=":3740802547_0_0" index="0" disallow="tram rail_urban rail rail_electric ship" speed="12.54" length="7.28" shape="5256.85,1262.51 5255.84,1260.61 5255.04,1259.35 5254.02,1258.27 5252.36,1256.89"/>
    </edge>
    <edge id=":3740802547_1" function="internal">
        <lane id=":3740802547_1_0" index="0" disallow="tram rail_urban rail rail_electric ship" speed="11.18" length="7.23" shape="5259.12,1259.06 5256.98,1258.75 5255.48,1258.56 5254.10,1258.07 5252.36,1256.89"/>
    </edge>
    <edge id=":3740802553_0" function="internal">
        <lane id=":3740802553_0_0" index="0" disallow="tram rail_urban rail rail_electric ship" speed="13.89" length="5.07" shape="5224.76,1244.25 5219.77,1245.15"/>
    </edge>
    <edge id=":3740802554_0" function="internal">
        <lane id=":3740802554_0_0" index="0" disallow="tram rail_urban rail rail_electric ship" speed="12.54" length="7.11" shape="5243.64,1247.90 5242.25,1246.40 5241.02,1245.68 5239.57,1245.25 5237.53,1244.66"/>
    </edge>
    <edge id=":3740802554_1" function="internal">
        <lane id=":3740802554_1_0" index="0" disallow="tram rail_urban rail rail_electric ship" speed="11.18" length="7.15" shape="5243.64,1247.90 5242.41,1246.19 5241.70,1244.92 5241.14,1243.57 5240.32,1241.61"/>
    </edge>
    <edge id=":3740802558_0" function="internal">
        <lane id=":3740802558_0_0" index="0" disallow="tram rail_urban rail rail_electric ship" speed="12.54" length="7.22" shape="5234.24,1227.51 5235.92,1226.17 5237.13,1225.23 5238.04,1224.10 5238.87,1222.18"/>
    </edge>
    <edge id=":3740802558_1" function="internal">
        <lane id=":3740802558_1_0" index="0" disallow="tram rail_urban rail rail_electric ship" speed="11.18" length="7.25" shape="5237.92,1229.32 5238.00,1227.17 5238.04,1225.68 5238.27,1224.23 5238.87,1222.18"/>
    </edge>
    <edge id=":3740802597_0" function="internal">
        <lane id=":3740802597_0_0" index="0" disallow="tram rail_urban rail rail_electric ship" speed="11.18" length="5.53" shape="4601.93,2060.58 4600.45,2059.87 4599.37,2059.45 4598.26,2059.32 4596.65,2059.47"/>
    </edge>
    <edge id=":3740802597_1" function="internal">
        <lane id=":3740802597_1_0" index="0" disallow="tram rail_urban rail rail_electric ship" speed="12.54" length="5.31" shape="4600.79,2056.35 4599.79,2057.59 4598.77,2058.53 4597.72,2059.15 4596.65,2059.47"/>
    </edge>
    <edge id=":3740802603_0" function="internal">
        <lane id=":3740802603_0_0" index="0" disallow="tram rail_urban rail rail_electric ship" speed="12.54" length="5.57" shape="4585.83,2039.50 4587.23,2040.39 4588.26,2040.95 4589.36,2041.19 4590.97,2041.09"/>
    </edge>
    <edge id=":3740802603_1" function="internal">
        <lane id=":3740802603_1_0" index="0" disallow="tram rail_urban rail rail_electric ship" speed="13.89" length="5.59" shape="4586.29,2043.84 4587.48,2042.68 4588.36,2041.91 4589.38,2041.41 4590.97,2041.09"/>
    </edge>
    <edge id=":3740802606_0" function="internal">
        <lane id=":3740802606_0_0" index="0" disallow="tram rail_urban rail rail_electric ship" speed="9.73" length="5.68" shape="4597.52,2038.33 4597.95,2039.96 4598.29,2041.08 4598.82,2042.11 4599.82,2043.44"/>
    </edge>
    <edge id=":3740802606_1" function="internal">
        <lane id=":3740802606_1_0" index="0" disallow="tram rail_urban rail rail_electric ship" speed="13.89" length="6.21" shape="4594.39,2040.84 4596.20,2041.23 4597.48,2041.54 4598.58,2042.15 4599.82,2043.44"/>
    </edge>
    <edge id=":3740802610_0" function="internal">
        <lane id=":3740802610_0_0" index="0" disallow="tram rail_urban rail rail_electric ship" speed="12.54" length="5.62" shape="4602.66,2047.89 4603.23,2049.40 4603.93,2050.31 4604.91,2050.99 4606.35,2051.84"/>
    </edge>
    <edge id=":3740802610_1" function="internal">
        <lane id=":3740802610_1_0" index="0" disallow="tram rail_urban rail rail_electric ship" speed="13.89" length="5.68" shape="4602.66,2047.89 4603.03,2049.50 4603.04,2050.65 4602.74,2051.80 4602.22,2053.41"/>
    </edge>
    <edge id=":3740802616_0" function="internal">
        <lane id=":3740802616_0_0" index="0" disallow="tram rail_urban rail rail_electric ship" speed="11.18" length="0.10" shape="4732.95,2073.11 4732.95,2073.11"/>
    </edge>
    <edge id=":3740802628_0" function="internal">
        <lane id=":3740802628_0_0" index="0" disallow="tram rail_urban rail rail_electric ship" speed="11.18" length="0.27" shape="5006.70,1952.32 5006.92,1952.15"/>
    </edge>
    <edge id=":3740802652_0" function="internal">
        <lane id=":3740802652_0_0" index="0" disallow="tram rail_urban rail rail_electric ship" speed="11.18" length="5.67" shape="4583.72,2051.50 4583.29,2049.93 4582.68,2048.95 4581.75,2048.18 4580.35,2047.25"/>
    </edge>
    <edge id=":3740802652_1" function="internal">
        <lane id=":3740802652_1_0" index="0" disallow="tram rail_urban rail rail_electric ship" speed="12.54" length="5.74" shape="4583.72,2051.50 4583.49,2049.85 4583.60,2048.68 4584.03,2047.56 4584.75,2046.02"/>
    </edge>
    <edge id=":3740802656_0" function="internal">
        <lane id=":3740802656_0_0" index="0" disallow="tram rail_urban rail rail_electric ship" speed="12.54" length="5.20" shape="4523.41,1996.47 4522.59,1995.17 4521.90,1994.32 4521.03,1993.73 4519.61,1993.22"/>
    </edge>
    <edge id=":3740802656_1" function="internal">
        <lane id=":3740802656_1_0" index="0" disallow="tram rail_urban rail rail_electric ship" speed="13.89" length="5.03" shape="4524.39,1992.20 4523.09,1992.88 4521.86,1993.27 4520.70,1993.39 4519.61,1993.22"/>
    </edge>
    <edge id=":3740802661_0" function="internal">
        <lane id=":3740802661_0_0" index="0" disallow="tram rail_urban rail rail_electric ship" speed="12.54" length="5.34" shape="4510.53,1980.79 4510.66,1979.26 4510.47,1978.19 4509.95,1977.19 4509.11,1975.84"/>
    </edge>
    <edge id=":3740802661_1" function="internal">
        <lane id=":3740802661_1_0" index="0" disallow="tram rail_urban rail rail_electric ship" speed="13.89" length="5.33" shape="4510.53,1980.79 4510.87,1979.30 4511.39,1978.35 4512.20,1977.57 4513.43,1976.57"/>
    </edge>
    <edge id=":3740802664_0" function="internal">
        <lane id=":3740802664_0_0" index="0" allow="delivery bicycle pedestrian" speed="9.73" length="5.31" shape="4526.35,1976.84 4527.61,1977.75 4528.59,1978.18 4529.68,1978.38 4531.24,1978.60"/>
    </edge>
    <edge id=":3740802664_1" function="internal">
        <lane id=":3740802664_1_0" index="0" disallow="tram rail_urban rail rail_electric ship" speed="13.89" length="6.09" shape="4526.35,1976.84 4527.65,1978.05 4528.31,1979.08 4528.73,1980.29 4529.28,1982.02"/>
    </edge>
    <edge id=":3740802666_0" function="internal">
        <lane id=":3740802666_0_0" index="0" disallow="tram rail_urban rail rail_electric ship" speed="12.54" length="5.59" shape="4529.29,1985.18 4529.30,1986.79 4529.60,1987.88 4530.22,1988.88 4531.18,1990.24"/>
    </edge>
    <edge id=":3740802666_1" function="internal">
        <lane id=":3740802666_1_0" index="0" disallow="tram rail_urban rail rail_electric ship" speed="13.89" length="5.60" shape="4529.29,1985.18 4529.07,1986.78 4528.64,1987.83 4527.92,1988.77 4526.83,1990.03"/>
    </edge>
    <edge id=":3740802678_0" function="internal">
        <lane id=":3740802678_0_0" index="0" allow="delivery bicycle pedestrian" speed="8.37" length="4.99" shape="4482.12,1914.44 4481.58,1913.19 4480.76,1912.41 4479.68,1912.10 4478.32,1912.26"/>
    </edge>
    <edge id=":3740802678_1" function="internal">
        <lane id=":3740802678_1_0" index="0" disallow="tram rail_urban rail rail_electric ship" speed="11.18" length="9.36" shape="4482.12,1914.44 4479.74,1905.38"/>
    </edge>
    <edge id=":3740802678_2" function="internal">
        <lane id=":3740802678_2_0" index="0" disallow="tram rail_urban rail rail_electric ship" speed="8.37" length="5.00" shape="4477.49,1909.17 4478.76,1908.63 4479.55,1907.82 4479.88,1906.74 4479.74,1905.38"/>
    </edge>
    <edge id=":3740802678_3" function="internal">
        <lane id=":3740802678_3_0" index="0" allow="delivery bicycle pedestrian" speed="5.56" length="4.67" shape="4477.49,1909.17 4478.86,1909.63 4479.45,1910.30 4479.27,1911.18 4478.32,1912.26"/>
    </edge>
    <edge id=":3740802687_0" function="internal">
        <lane id=":3740802687_0_0" index="0" disallow="tram rail_urban rail rail_electric ship" speed="8.37" length="5.25" shape="4494.33,1709.96 4495.96,1710.10 4497.25,1709.85 4498.20,1709.24 4498.83,1708.25"/>
    </edge>
    <edge id=":3740802687_1" function="internal">
        <lane id=":3740802687_1_0" index="0" allow="delivery bicycle pedestrian" speed="5.56" length="5.28" shape="4494.33,1709.96 4494.85,1711.51 4494.65,1712.50 4493.73,1712.94 4492.11,1712.82"/>
    </edge>
    <edge id=":3740802687_2" function="internal">
        <lane id=":3740802687_2_0" index="0" allow="delivery bicycle pedestrian" speed="8.37" length="6.75" shape="4495.58,1717.40 4495.81,1715.71 4495.31,1714.38 4494.07,1713.42 4492.11,1712.82"/>
    </edge>
    <edge id=":3740802687_3" function="internal">
        <lane id=":3740802687_3_0" index="0" disallow="tram rail_urban rail rail_electric ship" speed="11.18" length="9.72" shape="4495.58,1717.40 4498.83,1708.25"/>
    </edge>
    <edge id=":3740802702_0" function="internal">
        <lane id=":3740802702_0_0" index="0" disallow="tram rail_urban rail rail_electric ship" speed="12.54" length="6.42" shape="4516.16,1970.61 4517.28,1972.09 4518.50,1973.16 4519.83,1973.82 4521.27,1974.07"/>
    </edge>
    <edge id=":3740802702_1" function="internal">
        <lane id=":3740802702_1_0" index="0" disallow="tram rail_urban rail rail_electric ship" speed="13.89" length="7.07" shape="4514.64,1975.58 4516.30,1974.42 4517.66,1973.97 4519.17,1973.96 4521.27,1974.07"/>
    </edge>
    <edge id=":3761995413_0" function="internal">
        <lane id=":3761995413_0_0" index="0" speed="5.56" length="0.79" shape="4708.84,2039.86 4708.68,2040.03 4708.58,2040.16 4708.52,2040.30 4708.44,2040.52"/>
    </edge>
    <edge id=":3761995413_1" function="internal">
        <lane id=":3761995413_1_0" index="0" speed="5.56" length="1.96" shape="4708.84,2039.86 4707.43,2040.14 4706.94,2039.98"/>
    </edge>
    <edge id=":3761995413_4" function="internal">
        <lane id=":3761995413_4_0" index="0" speed="5.56" length="2.71" shape="4706.94,2039.98 4706.58,2039.86 4706.30,2039.01 4706.59,2037.59"/>
    </edge>
    <edge id=":3761995413_2" function="internal">
        <lane id=":3761995413_2_0" index="0" speed="5.56" length="2.37" shape="4705.39,2039.58 4705.60,2038.92 4705.81,2038.48 4706.10,2038.09 4706.59,2037.59"/>
    </edge>
    <edge id=":3761995413_3" function="internal">
        <lane id=":3761995413_3_0" index="0" speed="5.56" length="2.71" shape="4705.39,2039.58 4706.50,2038.67 4707.39,2038.52 4707.66,2038.79"/>
    </edge>
    <edge id=":3761995413_5" function="internal">
        <lane id=":3761995413_5_0" index="0" speed="5.56" length="1.96" shape="4707.66,2038.79 4708.03,2039.14 4708.44,2040.52"/>
    </edge>
    <edge id=":3761995419_0" function="internal">
        <lane id=":3761995419_0_0" index="0" speed="5.56" length="9.58" shape="4750.66,2056.43 4749.73,2054.16 4748.21,2052.65 4746.08,2051.90 4743.35,2051.91"/>
    </edge>
    <edge id=":3761995419_1" function="internal">
        <lane id=":3761995419_1_0" index="0" speed="5.56" length="14.44" shape="4750.66,2056.43 4747.35,2042.38"/>
    </edge>
    <edge id=":3761995419_2" function="internal">
        <lane id=":3761995419_2_0" index="0" speed="5.56" length="4.67" shape="4750.66,2056.43 4751.16,2055.08 4751.85,2054.50 4752.72,2054.71 4753.77,2055.70"/>
    </edge>
    <edge id=":3761995419_3" function="internal">
        <lane id=":3761995419_3_0" index="0" speed="5.56" length="14.44" shape="4750.47,2041.64 4753.77,2055.70"/>
    </edge>
    <edge id=":3761995419_4" function="internal">
        <lane id=":3761995419_4_0" index="0" speed="5.56" length="14.60" shape="4750.47,2041.64 4750.82,2045.69 4749.76,2048.75 4747.27,2050.82 4743.35,2051.91"/>
    </edge>
    <edge id=":3761995419_5" function="internal">
        <lane id=":3761995419_5_0" index="0" speed="5.56" length="4.67" shape="4750.47,2041.64 4749.96,2042.99 4749.28,2043.57 4748.40,2043.36 4747.35,2042.38"/>
    </edge>
    <edge id=":3761995419_6" function="internal">
        <lane id=":3761995419_6_0" index="0" speed="5.56" length="9.04" shape="4742.95,2048.73 4745.37,2048.06 4746.91,2046.78 4747.57,2044.88 4747.35,2042.38"/>
    </edge>
    <edge id=":3761995419_7" function="internal">
        <lane id=":3761995419_7_0" index="0" speed="5.56" length="14.36" shape="4742.95,2048.73 4746.97,2048.74 4750.11,2049.90 4752.38,2052.22 4753.77,2055.70"/>
    </edge>
    <edge id=":3761995419_8" function="internal">
        <lane id=":3761995419_8_0" index="0" speed="5.56" length="4.67" shape="4742.95,2048.73 4744.24,2049.37 4744.74,2050.12 4744.44,2050.96 4743.35,2051.91"/>
    </edge>
    <edge id=":3761995420_0" function="internal">
        <lane id=":3761995420_0_0" index="0" speed="6.71" length="13.37" shape="4861.87,2004.91 4859.55,2002.13 4858.59,1999.23 4859.00,1996.20 4860.77,1993.04"/>
    </edge>
    <edge id=":3761995420_1" function="internal">
        <lane id=":3761995420_1_0" index="0" speed="6.71" length="2.56" shape="4861.87,2004.91 4861.52,2003.51 4861.76,2002.65 4861.96,2002.57"/>
    </edge>
    <edge id=":3761995420_4" function="internal">
        <lane id=":3761995420_4_0" index="0" speed="6.71" length="2.12" shape="4861.96,2002.57 4862.59,2002.33 4864.02,2002.53"/>
    </edge>
    <edge id=":3761995420_2" function="internal">
        <lane id=":3761995420_2_0" index="0" speed="6.71" length="8.51" shape="4863.32,1994.98 4862.19,1996.99 4861.93,1998.92 4862.54,2000.77 4864.02,2002.53"/>
    </edge>
    <edge id=":3761995420_3" function="internal">
        <lane id=":3761995420_3_0" index="0" speed="6.71" length="2.08" shape="4863.32,1994.98 4861.95,1995.45 4861.32,1995.33"/>
    </edge>
    <edge id=":3761995420_5" function="internal">
        <lane id=":3761995420_5_0" index="0" speed="6.71" length="2.59" shape="4861.32,1995.33 4861.07,1995.28 4860.68,1994.48 4860.77,1993.04"/>
    </edge>
    <edge id=":3761995421_0" function="internal">
        <lane id=":3761995421_0_0" index="0" speed="6.71" length="5.76" shape="4867.94,1991.28 4866.41,1992.05 4865.40,1992.66 4864.54,1993.46 4863.47,1994.78"/>
    </edge>
    <edge id=":3761995421_1" function="internal">
        <lane id=":3761995421_1_0" index="0" speed="6.71" length="2.34" shape="4867.94,1991.28 4866.50,1991.11 4865.79,1990.58"/>
    </edge>
    <edge id=":3761995421_4" function="internal">
        <lane id=":3761995421_4_0" index="0" speed="6.71" length="2.34" shape="4865.79,1990.58 4865.78,1989.68 4866.49,1988.43"/>
    </edge>
    <edge id=":3761995421_2" function="internal">
        <lane id=":3761995421_2_0" index="0" speed="6.71" length="7.21" shape="4860.93,1992.83 4862.26,1991.18 4863.33,1990.17 4864.59,1989.39 4866.49,1988.43"/>
    </edge>
    <edge id=":3761995421_3" function="internal">
        <lane id=":3761995421_3_0" index="0" speed="6.71" length="2.34" shape="4860.93,1992.83 4862.29,1992.37 4863.17,1992.53"/>
    </edge>
    <edge id=":3761995421_5" function="internal">
        <lane id=":3761995421_5_0" index="0" speed="6.71" length="2.34" shape="4863.17,1992.53 4863.56,1993.34 4863.47,1994.78"/>
    </edge>
    <edge id=":3761995422_0" function="internal">
        <lane id=":3761995422_0_0" index="0" speed="6.71" length="5.31" shape="4913.77,1966.29 4909.21,1969.01"/>
    </edge>
    <edge id=":3761995422_1" function="internal">
        <lane id=":3761995422_1_0" index="0" speed="6.71" length="2.34" shape="4913.77,1966.29 4912.33,1966.26 4911.56,1965.80"/>
    </edge>
    <edge id=":3761995422_4" function="internal">
        <lane id=":3761995422_4_0" index="0" speed="6.71" length="2.34" shape="4911.56,1965.80 4911.46,1964.91 4912.04,1963.59"/>
    </edge>
    <edge id=":3761995422_2" function="internal">
        <lane id=":3761995422_2_0" index="0" speed="6.71" length="5.10" shape="4907.66,1966.21 4912.04,1963.59"/>
    </edge>
    <edge id=":3761995422_3" function="internal">
        <lane id=":3761995422_3_0" index="0" speed="6.71" length="2.34" shape="4907.66,1966.21 4909.10,1966.33 4909.83,1966.83"/>
    </edge>
    <edge id=":3761995422_5" function="internal">
        <lane id=":3761995422_5_0" index="0" speed="6.71" length="2.34" shape="4909.83,1966.83 4909.87,1967.73 4909.21,1969.01"/>
    </edge>
    <edge id=":3761995423_0" function="internal">
        <lane id=":3761995423_0_0" index="0" speed="6.71" length="5.42" shape="4961.43,1935.50 4960.16,1936.48 4959.27,1937.14 4958.36,1937.75 4957.01,1938.62"/>
    </edge>
    <edge id=":3761995423_1" function="internal">
        <lane id=":3761995423_1_0" index="0" speed="6.71" length="2.34" shape="4961.43,1935.50 4960.00,1935.60 4959.19,1935.21"/>
    </edge>
    <edge id=":3761995423_4" function="internal">
        <lane id=":3761995423_4_0" index="0" speed="6.71" length="2.34" shape="4959.19,1935.21 4959.02,1934.33 4959.48,1932.97"/>
    </edge>
    <edge id=":3761995423_2" function="internal">
        <lane id=":3761995423_2_0" index="0" speed="6.71" length="5.14" shape="4955.28,1935.93 4956.56,1935.10 4957.43,1934.52 4958.27,1933.90 4959.48,1932.97"/>
    </edge>
    <edge id=":3761995423_3" function="internal">
        <lane id=":3761995423_3_0" index="0" speed="6.71" length="2.34" shape="4955.28,1935.93 4956.72,1935.96 4957.49,1936.41"/>
    </edge>
    <edge id=":3761995423_5" function="internal">
        <lane id=":3761995423_5_0" index="0" speed="6.71" length="2.34" shape="4957.49,1936.41 4957.59,1937.30 4957.01,1938.62"/>
    </edge>
    <edge id=":3761995424_0" function="internal">
        <lane id=":3761995424_0_0" index="0" speed="6.71" length="5.38" shape="5006.08,1900.79 5001.96,1904.24"/>
    </edge>
    <edge id=":3761995424_1" function="internal">
        <lane id=":3761995424_1_0" index="0" speed="6.71" length="2.34" shape="5006.08,1900.79 5004.65,1901.00 5003.82,1900.68"/>
    </edge>
    <edge id=":3761995424_4" function="internal">
        <lane id=":3761995424_4_0" index="0" speed="6.71" length="2.34" shape="5003.82,1900.68 5003.58,1899.82 5003.93,1898.42"/>
    </edge>
    <edge id=":3761995424_2" function="internal">
        <lane id=":3761995424_2_0" index="0" speed="6.71" length="5.12" shape="5000.00,1901.71 5003.93,1898.42"/>
    </edge>
    <edge id=":3761995424_3" function="internal">
        <lane id=":3761995424_3_0" index="0" speed="6.71" length="2.34" shape="5000.00,1901.71 5001.44,1901.61 5002.25,1902.00"/>
    </edge>
    <edge id=":3761995424_5" function="internal">
        <lane id=":3761995424_5_0" index="0" speed="6.71" length="2.34" shape="5002.25,1902.00 5002.42,1902.88 5001.96,1904.24"/>
    </edge>
    <edge id=":3761995425_0" function="internal">
        <lane id=":3761995425_0_0" index="0" allow="emergency authority delivery bicycle pedestrian" speed="6.71" length="4.67" shape="5091.95,1800.70 5093.33,1800.26 5094.20,1800.45 5094.58,1801.26 5094.45,1802.70"/>
    </edge>
    <edge id=":3761995426_0" function="internal">
        <lane id=":3761995426_0_0" index="0" speed="6.71" length="8.83" shape="5055.35,1861.16 5053.38,1859.78 5051.42,1859.35 5049.48,1859.85 5047.56,1861.30"/>
    </edge>
    <edge id=":3761995426_1" function="internal">