<?xml version="1.0" encoding="UTF-8"?>

<!-- generated on 03/20/19 11:01:16 by Eclipse SUMO netedit Version v1_0_1+0383-8ba62d898b
<configuration xmlns:xsi="http://www.w3.org/2001/XMLSchema-instance" xsi:noNamespaceSchemaLocation="http://sumo.dlr.de/xsd/netconvertConfiguration.xsd">

    <input>
        <sumo-net-file value="tolls.net.xml"/>
    </input>

    <output>
        <output-file value="tolls.net.xml"/>
    </output>

    <processing>
        <offset.disable-normalization value="true"/>
        <lefthand value="false"/>
    </processing>

    <junctions>
        <no-internal-links value="true"/>
        <no-turnarounds value="true"/>
        <junctions.corner-detail value="5"/>
        <junctions.limit-turn-speed value="5.5"/>
        <rectangular-lane-cut value="false"/>
    </junctions>

    <pedestrian>
        <walkingareas value="false"/>
    </pedestrian>

</configuration>
-->

<net version="1.0" junctionCornerDetail="5" limitTurnSpeed="5.50" xmlns:xsi="http://www.w3.org/2001/XMLSchema-instance" xsi:noNamespaceSchemaLocation="http://sumo.dlr.de/xsd/net_file.xsd">

    <location netOffset="0.00,0.00" convBoundary="-187.33,-240.00,300.00,150.00" origBoundary="-10000000000.00,-10000000000.00,10000000000.00,10000000000.00" projParameter="!"/>

    <edge id="-gneE107" from="gneJ101" to="gneJ95" priority="-1">
        <lane id="-gneE107_0" index="0" speed="13.89" length="22.36" shape="-45.03,-90.80 -35.96,-72.66"/>
        <lane id="-gneE107_1" index="1" speed="13.89" length="22.36" shape="-47.89,-89.36 -38.82,-71.22"/>
    </edge>
    <edge id="-gneE108" from="gneJ102" to="gneJ101" priority="-1">
        <lane id="-gneE108_0" index="0" speed="13.89" length="20.00" shape="-45.20,-107.35 -45.20,-91.51"/>
        <lane id="-gneE108_1" index="1" speed="13.89" length="20.00" shape="-48.40,-107.35 -48.40,-91.51"/>
    </edge>
    <edge id="-gneE109" from="gneJ103" to="gneJ102" priority="-1">
        <lane id="-gneE109_0" index="0" speed="13.89" length="28.28" shape="-28.48,-124.73 -44.73,-108.48"/>
        <lane id="-gneE109_1" index="1" speed="13.89" length="28.28" shape="-30.74,-126.99 -46.99,-110.74"/>
    </edge>
    <edge id="-gneE110" from="gneJ104" to="gneJ103" priority="-1">
        <lane id="-gneE110_0" index="0" speed="13.89" length="290.00" shape="257.87,-125.20 -27.35,-125.20"/>
        <lane id="-gneE110_1" index="1" speed="13.89" length="290.00" shape="257.87,-128.40 -27.35,-128.40"/>
    </edge>
    <edge id="-gneE111" from="gneJ105" to="gneJ104" priority="-1">
        <lane id="-gneE111_0" index="0" speed="13.89" length="50.00" shape="300.32,-154.24 264.59,-127.44"/>
        <lane id="-gneE111_1" index="1" speed="13.89" length="50.00" shape="298.40,-156.80 262.67,-130.00"/>
    </edge>
    <edge id="-gneE112" from="gneJ106" to="gneJ105" priority="-1">
        <lane id="-gneE112_0" index="0" speed="13.89" length="40.00" shape="304.80,-196.80 304.80,-163.20"/>
        <lane id="-gneE112_1" index="1" speed="13.89" length="40.00" shape="301.60,-196.80 301.60,-163.20"/>
    </edge>
    <edge id="-gneE113" from="gneJ107" to="gneJ106" priority="-1">
        <lane id="-gneE113_0" index="0" speed="13.89" length="50.00" shape="264.59,-232.56 300.32,-205.76"/>
        <lane id="-gneE113_1" index="1" speed="13.89" length="50.00" shape="262.67,-230.00 298.40,-203.20"/>
    </edge>
    <edge id="-gneE114" from="gneJ108" to="gneJ107" priority="-1">
        <lane id="-gneE114_0" index="0" speed="13.89" length="50.00" shape="212.24,-234.80 257.87,-234.80"/>
        <lane id="-gneE114_1" index="1" speed="13.89" length="50.00" shape="212.24,-231.60 257.87,-231.60"/>
    </edge>
    <edge id="-gneE115" from="gneJ109" to="gneJ108" priority="-1">
        <lane id="-gneE115_0" index="0" speed="13.89" length="64.03" shape="158.75,-195.15 205.25,-232.35"/>
        <lane id="-gneE115_1" index="1" speed="13.89" length="64.03" shape="160.75,-192.65 207.25,-229.85"/>
    </edge>
    <edge id="-gneE116" from="gneJ110" to="gneJ109" priority="-1">
        <lane id="-gneE116_0" index="0" speed="13.89" length="44.97" shape="119.78,-194.80 157.76,-194.80"/>
        <lane id="-gneE116_1" index="1" speed="13.89" length="44.97" shape="119.78,-191.60 157.76,-191.60"/>
    </edge>
    <edge id="-gneE117" from="gneJ111" to="gneJ110" priority="-1">
        <lane id="-gneE117_0" index="0" speed="13.89" length="89.94" shape="28.06,-194.80 111.94,-194.80"/>
        <lane id="-gneE117_1" index="1" speed="13.89" length="89.94" shape="28.06,-191.60 111.94,-191.60"/>
    </edge>
    <edge id="-gneE124" from="gneJ116" to="gneJ111" priority="-1">
        <lane id="-gneE124_0" index="0" speed="13.89" length="75.09" shape="-48.45,-194.80 20.22,-194.80"/>
        <lane id="-gneE124_1" index="1" speed="13.89" length="75.09" shape="-48.45,-191.60 20.22,-191.60"/>
    </edge>
    <edge id="-gneE125" from="gneJ117" to="gneJ116" priority="-1">
        <lane id="-gneE125_0" index="0" speed="13.89" length="35.91" shape="-81.45,-179.19 -53.58,-193.55"/>
        <lane id="-gneE125_1" index="1" speed="13.89" length="35.91" shape="-79.98,-176.34 -52.11,-190.71"/>
    </edge>
    <edge id="-gneE126" from="gneJ118" to="gneJ117" priority="-1">
        <lane id="-gneE126_0" index="0" speed="13.89" length="106.73" shape="-140.69,-85.88 -87.99,-167.12"/>
    </edge>
    <edge id="-gneE127" from="gneJ119" to="gneJ34" priority="-1">
        <lane id="-gneE127_0" index="0" speed="13.89" length="35.77" shape="-98.80,-116.79 -98.80,-89.00"/>
        <lane id="-gneE127_1" index="1" speed="13.89" length="35.77" shape="-102.00,-116.79 -102.00,-89.00"/>
        <lane id="-gneE127_2" index="2" speed="13.89" length="35.77" shape="-105.20,-116.79 -105.20,-89.00"/>
        <lane id="-gneE127_3" index="3" speed="13.89" length="35.77" shape="-108.40,-116.79 -108.40,-89.00"/>
    </edge>
    <edge id="-gneE128" from="gneJ120" to="gneJ119" priority="-1">
        <lane id="-gneE128_0" index="0" speed="13.89" length="42.31" shape="-102.00,-154.16 -102.00,-123.58"/>
        <lane id="-gneE128_1" index="1" speed="13.89" length="42.31" shape="-105.20,-154.16 -105.20,-123.58"/>
        <lane id="-gneE128_2" index="2" speed="13.89" length="42.31" shape="-108.40,-154.16 -108.40,-123.58"/>
    </edge>
    <edge id="-gneE129" from="gneJ121" to="gneJ118" priority="-1">
        <lane id="-gneE129_0" index="0" speed="13.89" length="19.53" shape="-158.19,-80.47 -141.59,-85.21"/>
    </edge>
    <edge id="-gneE130" from="gneJ122" to="gneJ121" priority="-1">
        <lane id="-gneE130_0" index="0" speed="13.89" length="17.74" shape="-173.43,-85.98 -159.20,-80.52"/>
    </edge>
    <edge id="-gneE131" from="gneJ123" to="gneJ122" priority="-1">
        <lane id="-gneE131_0" index="0" speed="13.89" length="15.94" shape="-178.95,-98.93 -174.35,-86.90"/>
    </edge>
    <edge id="-gneE132" from="gneJ124" to="gneJ123" priority="-1">
        <lane id="-gneE132_0" index="0" speed="13.89" length="18.24" shape="-170.08,-113.59 -178.79,-100.38"/>
    </edge>
    <edge id="-gneE133" from="gneJ125" to="gneJ124" priority="-1">
        <lane id="-gneE133_0" index="0" speed="13.89" length="31.80" shape="-144.85,-128.01 -169.53,-114.11"/>
    </edge>
    <edge id="-gneE138" from="gneJ128" to="gneJ120" priority="-1">
        <lane id="-gneE138_0" index="0" speed="13.89" length="39.72" shape="-102.00,-188.42 -102.00,-162.84"/>
        <lane id="-gneE138_1" index="1" speed="13.89" length="39.72" shape="-105.20,-188.42 -105.20,-162.84"/>
        <lane id="-gneE138_2" index="2" speed="13.89" length="39.72" shape="-108.40,-188.42 -108.40,-162.84"/>
    </edge>
    <edge id="-gneE143" from="gneJ131" to="gneJ128" priority="-1">
        <lane id="-gneE143_0" index="0" speed="13.89" length="31.91" shape="-98.80,-216.00 -98.80,-192.94"/>
        <lane id="-gneE143_1" index="1" speed="13.89" length="31.91" shape="-102.00,-216.00 -102.00,-192.94"/>
        <lane id="-gneE143_2" index="2" speed="13.89" length="31.91" shape="-105.20,-216.00 -105.20,-192.94"/>
        <lane id="-gneE143_3" index="3" speed="13.89" length="31.91" shape="-108.40,-216.00 -108.40,-192.94"/>
    </edge>
    <edge id="-gneE144" from="gneJ132" to="gneJ131" priority="-1">
        <lane id="-gneE144_0" index="0" speed="13.89" length="20.00" shape="-102.00,-240.00 -102.00,-224.00"/>
        <lane id="-gneE144_1" index="1" speed="13.89" length="20.00" shape="-105.20,-240.00 -105.20,-224.00"/>
        <lane id="-gneE144_2" index="2" speed="13.89" length="20.00" shape="-108.40,-240.00 -108.40,-224.00"/>
    </edge>
    <edge id="-gneE15" from="gneJ19" to="gneJ12" priority="-1">
        <lane id="-gneE15_0" index="0" speed="13.89" length="34.67" shape="-118.00,116.00 -118.00,94.64"/>
        <lane id="-gneE15_1" index="1" speed="13.89" length="34.67" shape="-114.80,116.00 -114.80,94.64"/>
        <lane id="-gneE15_2" index="2" speed="13.89" length="34.67" shape="-111.60,116.00 -111.60,94.64"/>
    </edge>
    <edge id="-gneE16" from="gneJ21" to="gneJ13" priority="-1">
        <lane id="-gneE16_0" index="0" speed="13.89" length="20.00" shape="-98.80,4.00 -98.80,7.33"/>
        <lane id="-gneE16_1" index="1" speed="13.89" length="20.00" shape="-102.00,4.00 -102.00,7.33"/>
        <lane id="-gneE16_2" index="2" speed="13.89" length="20.00" shape="-105.20,4.00 -105.20,7.33"/>
        <lane id="-gneE16_3" index="3" speed="13.89" length="20.00" shape="-108.40,4.00 -108.40,7.33"/>
    </edge>
    <edge id="-gneE17" from="gneJ22" to="gneJ13" priority="-1">
        <lane id="-gneE17_0" index="0" speed="13.89" length="20.00" shape="-121.20,36.00 -121.20,34.30"/>
        <lane id="-gneE17_1" index="1" speed="13.89" length="20.00" shape="-118.00,36.00 -118.00,34.30"/>
        <lane id="-gneE17_2" index="2" speed="13.89" length="20.00" shape="-114.80,36.00 -114.80,34.30"/>
        <lane id="-gneE17_3" index="3" speed="13.89" length="20.00" shape="-111.60,36.00 -111.60,34.30"/>
    </edge>
    <edge id="-gneE18" from="gneJ22" to="gneJ12" priority="-1">
        <lane id="-gneE18_0" index="0" speed="13.89" length="58.62" shape="-102.00,44.00 -102.00,89.63"/>
        <lane id="-gneE18_1" index="1" speed="13.89" length="58.62" shape="-105.20,44.00 -105.20,89.63"/>
        <lane id="-gneE18_2" index="2" speed="13.89" length="58.62" shape="-108.40,44.00 -108.40,89.63"/>
    </edge>
    <edge id="-gneE20" from="gneJ24" to="gneJ11" priority="-1">
        <lane id="-gneE20_0" index="0" speed="13.89" length="28.73" shape="-177.77,43.68 -154.85,57.39"/>
    </edge>
    <edge id="-gneE21" from="gneJ25" to="gneJ24" priority="-1">
        <lane id="-gneE21_0" index="0" speed="13.89" length="23.33" shape="-185.36,23.24 -178.45,42.84"/>
    </edge>
    <edge id="-gneE22" from="gneJ26" to="gneJ25" priority="-1">
        <lane id="-gneE22_0" index="0" speed="13.89" length="27.03" shape="-174.07,0.67 -185.26,21.96"/>
    </edge>
    <edge id="-gneE23" from="gneJ27" to="gneJ26" priority="-1">
        <lane id="-gneE23_0" index="0" speed="13.89" length="34.05" shape="-143.42,-5.18 -172.92,-0.16"/>
    </edge>
    <edge id="-gneE29" from="gneJ32" to="gneJ21" priority="-1">
        <lane id="-gneE29_0" index="0" speed="13.89" length="31.69" shape="-102.00,-22.91 -102.00,-4.00"/>
        <lane id="-gneE29_1" index="1" speed="13.89" length="31.69" shape="-105.20,-22.91 -105.20,-4.00"/>
        <lane id="-gneE29_2" index="2" speed="13.89" length="31.69" shape="-108.40,-22.91 -108.40,-4.00"/>
    </edge>
    <edge id="-gneE31" from="gneJ33" to="gneJ32" priority="-1">
        <lane id="-gneE31_0" index="0" speed="13.89" length="36.81" shape="-102.00,-51.00 -102.00,-27.24"/>
        <lane id="-gneE31_1" index="1" speed="13.89" length="36.81" shape="-105.20,-51.00 -105.20,-27.24"/>
        <lane id="-gneE31_2" index="2" speed="13.89" length="36.81" shape="-108.40,-51.00 -108.40,-27.24"/>
    </edge>
    <edge id="-gneE32" from="gneJ34" to="gneJ33" priority="-1">
        <lane id="-gneE32_0" index="0" speed="13.89" length="30.00" shape="-102.00,-81.00 -102.00,-59.00"/>
        <lane id="-gneE32_1" index="1" speed="13.89" length="30.00" shape="-105.20,-81.00 -105.20,-59.00"/>
        <lane id="-gneE32_2" index="2" speed="13.89" length="30.00" shape="-108.40,-81.00 -108.40,-59.00"/>
    </edge>
    <edge id="-gneE33" from="gneJ35" to="gneJ19" priority="-1">
        <lane id="-gneE33_0" index="0" speed="13.89" length="30.00" shape="-118.00,150.00 -118.00,124.00"/>
        <lane id="-gneE33_1" index="1" speed="13.89" length="30.00" shape="-114.80,150.00 -114.80,124.00"/>
        <lane id="-gneE33_2" index="2" speed="13.89" length="30.00" shape="-111.60,150.00 -111.60,124.00"/>
    </edge>
    <edge id="-gneE5" from="gneJ10" to="gneJ9" priority="-1">
        <lane id="-gneE5_0" index="0" speed="13.89" length="177.62" shape="101.64,64.80 -62.19,64.80"/>
        <lane id="-gneE5_1" index="1" speed="13.89" length="177.62" shape="101.64,61.60 -62.19,61.60"/>
    </edge>
    <edge id="-gneE6" from="gneJ11" to="gneJ9" priority="-1">
        <lane id="-gneE6_0" index="0" speed="13.89" length="87.56" shape="-154.04,57.62 -71.09,58.31"/>
    </edge>
    <edge id="-gneE86" from="gneJ83" to="gneJ10" priority="-1">
        <lane id="-gneE86_0" index="0" speed="13.89" length="109.48" shape="213.20,64.80 116.80,64.80"/>
        <lane id="-gneE86_1" index="1" speed="13.89" length="109.48" shape="213.20,61.60 116.80,61.60"/>
    </edge>
    <edge id="-gneE92" from="gneJ88" to="gneJ83" priority="-1">
        <lane id="-gneE92_0" index="0" speed="13.89" length="40.26" shape="257.87,64.80 228.36,64.80"/>
        <lane id="-gneE92_1" index="1" speed="13.89" length="40.26" shape="257.87,61.60 228.36,61.60"/>
    </edge>
    <edge id="-gneE93" from="gneJ89" to="gneJ88" priority="-1">
        <lane id="-gneE93_0" index="0" speed="13.89" length="50.00" shape="300.32,35.76 264.59,62.56"/>
        <lane id="-gneE93_1" index="1" speed="13.89" length="50.00" shape="298.40,33.20 262.67,60.00"/>
    </edge>
    <edge id="-gneE94" from="gneJ90" to="gneJ89" priority="-1">
        <lane id="-gneE94_0" index="0" speed="13.89" length="80.00" shape="304.80,-46.80 304.80,26.80"/>
        <lane id="-gneE94_1" index="1" speed="13.89" length="80.00" shape="301.60,-46.80 301.60,26.80"/>
    </edge>
    <edge id="-gneE95" from="gneJ91" to="gneJ90" priority="-1">
        <lane id="-gneE95_0" index="0" speed="13.89" length="50.00" shape="264.59,-82.56 300.32,-55.76"/>
        <lane id="-gneE95_1" index="1" speed="13.89" length="50.00" shape="262.67,-80.00 298.40,-53.20"/>
    </edge>
    <edge id="-gneE96" from="gneJ92" to="gneJ91" priority="-1">
        <lane id="-gneE96_0" index="0" speed="13.89" length="60.00" shape="201.81,-84.80 257.87,-84.80"/>
        <lane id="-gneE96_1" index="1" speed="13.89" length="60.00" shape="201.81,-81.60 257.87,-81.60"/>
    </edge>
    <edge id="-gneE97" from="gneJ93" to="gneJ92" priority="-1">
        <lane id="-gneE97_0" index="0" speed="13.89" length="152.64" shape="69.03,-5.04 195.94,-83.14"/>
        <lane id="-gneE97_1" index="1" speed="13.89" length="152.64" shape="70.70,-2.31 197.62,-80.41"/>
    </edge>
    <edge id="-gneE98" from="gneJ94" to="gneJ93" priority="-1">
        <lane id="-gneE98_0" index="0" speed="13.89" length="40.00" shape="35.94,-4.80 68.19,-4.80"/>
        <lane id="-gneE98_1" index="1" speed="13.89" length="40.00" shape="35.94,-1.60 68.19,-1.60"/>
    </edge>
    <edge id="-gneE99" from="gneJ95" to="gneJ94" priority="-1">
        <lane id="-gneE99_0" index="0" speed="13.89" length="98.99" shape="-27.76,-64.55 25.07,-11.72"/>
        <lane id="-gneE99_1" index="1" speed="13.89" length="98.99" shape="-30.03,-62.29 22.80,-9.46"/>
    </edge>
    <edge id="gneE10" from="gneJ14" to="gneJ15" priority="-1">
        <lane id="gneE10_0" index="0" speed="13.89" length="24.50" shape="-77.15,69.85 -93.42,87.31"/>
    </edge>
    <edge id="gneE100" from="gneJ94" to="gneJ96" priority="-1">
        <lane id="gneE100_0" index="0" speed="13.89" length="31.02" shape="17.07,1.18 -1.05,0.60"/>
    </edge>
    <edge id="gneE101" from="gneJ97" to="gneJ95" priority="-1">
        <lane id="gneE101_0" index="0" speed="13.89" length="35.36" shape="-36.58,-34.77 -39.82,-57.39"/>
    </edge>
    <edge id="gneE102" from="gneJ95" to="gneJ98" priority="-1">
        <lane id="gneE102_0" index="0" speed="13.89" length="41.23" shape="-25.76,-68.09 0.39,-61.55"/>
    </edge>
    <edge id="gneE103" from="gneJ99" to="gneJ94" priority="-1">
        <lane id="gneE103_0" index="0" speed="13.89" length="33.20" shape="27.43,-33.14 29.84,-14.06"/>
    </edge>
    <edge id="gneE105" from="gneJ96" to="gneJ97" priority="-1">
        <lane id="gneE105_0" index="0" speed="13.89" length="48.08" shape="-2.13,0.13 -36.13,-33.87"/>
    </edge>
    <edge id="gneE106" from="gneJ98" to="gneJ99" priority="-1">
        <lane id="gneE106_0" index="0" speed="13.89" length="37.42" shape="1.16,-61.10 27.00,-34.04"/>
    </edge>
    <edge id="gneE107" from="gneJ95" to="gneJ101" priority="-1">
        <lane id="gneE107_0" index="0" speed="13.89" length="22.36" shape="-44.55,-68.36 -53.62,-86.50"/>
        <lane id="gneE107_1" index="1" speed="13.89" length="22.36" shape="-41.69,-69.79 -50.76,-87.93"/>
    </edge>
    <edge id="gneE108" from="gneJ101" to="gneJ102" priority="-1">
        <lane id="gneE108_0" index="0" speed="13.89" length="20.00" shape="-54.80,-91.51 -54.80,-107.35"/>
        <lane id="gneE108_1" index="1" speed="13.89" length="20.00" shape="-51.60,-91.51 -51.60,-107.35"/>
    </edge>
    <edge id="gneE109" from="gneJ102" to="gneJ103" priority="-1">
        <lane id="gneE109_0" index="0" speed="13.89" length="28.28" shape="-51.52,-115.27 -35.27,-131.52"/>
        <lane id="gneE109_1" index="1" speed="13.89" length="28.28" shape="-49.26,-113.01 -33.01,-129.26"/>
    </edge>
    <edge id="gneE11" from="gneJ15" to="gneJ12" priority="-1">
        <lane id="gneE11_0" index="0" speed="13.89" length="8.52" shape="-93.52,87.41 -96.93,90.46"/>
    </edge>
    <edge id="gneE110" from="gneJ103" to="gneJ104" priority="-1">
        <lane id="gneE110_0" index="0" speed="13.89" length="290.00" shape="-27.35,-134.80 257.87,-134.80"/>
        <lane id="gneE110_1" index="1" speed="13.89" length="290.00" shape="-27.35,-131.60 257.87,-131.60"/>
    </edge>
    <edge id="gneE111" from="gneJ104" to="gneJ105" priority="-1">
        <lane id="gneE111_0" index="0" speed="13.89" length="50.00" shape="258.83,-135.12 294.56,-161.92"/>
        <lane id="gneE111_1" index="1" speed="13.89" length="50.00" shape="260.75,-132.56 296.48,-159.36"/>
    </edge>
    <edge id="gneE112" from="gneJ105" to="gneJ106" priority="-1">
        <lane id="gneE112_0" index="0" speed="13.89" length="40.00" shape="295.20,-163.20 295.20,-196.80"/>
        <lane id="gneE112_1" index="1" speed="13.89" length="40.00" shape="298.40,-163.20 298.40,-196.80"/>
    </edge>
    <edge id="gneE113" from="gneJ106" to="gneJ107" priority="-1">
        <lane id="gneE113_0" index="0" speed="13.89" length="50.00" shape="294.56,-198.08 258.83,-224.88"/>
        <lane id="gneE113_1" index="1" speed="13.89" length="50.00" shape="296.48,-200.64 260.75,-227.44"/>
    </edge>
    <edge id="gneE114" from="gneJ107" to="gneJ108" priority="-1">
        <lane id="gneE114_0" index="0" speed="13.89" length="50.00" shape="257.87,-225.20 212.24,-225.20"/>
        <lane id="gneE114_1" index="1" speed="13.89" length="50.00" shape="257.87,-228.40 212.24,-228.40"/>
    </edge>
    <edge id="gneE115" from="gneJ108" to="gneJ109" priority="-1">
        <lane id="gneE115_0" index="0" speed="13.89" length="64.03" shape="211.25,-224.85 164.75,-187.65"/>
        <lane id="gneE115_1" index="1" speed="13.89" length="64.03" shape="209.25,-227.35 162.75,-190.15"/>
    </edge>
    <edge id="gneE116" from="gneJ109" to="gneJ110" priority="-1">
        <lane id="gneE116_0" index="0" speed="13.89" length="44.97" shape="157.76,-185.20 119.78,-185.20"/>
        <lane id="gneE116_1" index="1" speed="13.89" length="44.97" shape="157.76,-188.40 119.78,-188.40"/>
    </edge>
    <edge id="gneE117" from="gneJ110" to="gneJ111" priority="-1">
        <lane id="gneE117_0" index="0" speed="13.89" length="89.94" shape="111.94,-185.20 28.06,-185.20"/>
        <lane id="gneE117_1" index="1" speed="13.89" length="89.94" shape="111.94,-188.40 28.06,-188.40"/>
    </edge>
    <edge id="gneE118" from="gneJ110" to="gneJ112" priority="-1">
        <lane id="gneE118_0" index="0" speed="13.89" length="25.64" shape="113.56,-181.30 101.13,-168.87"/>
    </edge>
    <edge id="gneE119" from="gneJ113" to="gneJ111" priority="-1">
        <lane id="gneE119_0" index="0" speed="13.89" length="25.49" shape="38.87,-168.87 26.44,-181.30"/>
    </edge>
    <edge id="gneE12" from="gneJ13" to="gneJ16" priority="-1">
        <lane id="gneE12_0" index="0" speed="13.89" length="25.00" shape="-97.58,33.89 -93.95,38.74"/>
    </edge>
    <edge id="gneE120" from="gneJ111" to="gneJ114" priority="-1">
        <lane id="gneE120_0" index="0" speed="13.89" length="25.60" shape="26.44,-198.70 38.87,-211.13"/>
    </edge>
    <edge id="gneE121" from="gneJ115" to="gneJ110" priority="-1">
        <lane id="gneE121_0" index="0" speed="13.89" length="25.52" shape="101.13,-211.13 113.56,-198.70"/>
    </edge>
    <edge id="gneE122" from="gneJ112" to="gneJ113" priority="-1">
        <lane id="gneE122_0" index="0" speed="13.89" length="60.00" shape="100.00,-168.40 40.00,-168.40"/>
    </edge>
    <edge id="gneE123" from="gneJ114" to="gneJ115" priority="-1">
        <lane id="gneE123_0" index="0" speed="13.89" length="60.00" shape="40.00,-211.60 100.00,-211.60"/>
    </edge>
    <edge id="gneE124" from="gneJ111" to="gneJ116" priority="-1">
        <lane id="gneE124_0" index="0" speed="13.89" length="75.09" shape="20.22,-185.20 -48.45,-185.20"/>
        <lane id="gneE124_1" index="1" speed="13.89" length="75.09" shape="20.22,-188.40 -48.45,-188.40"/>
    </edge>
    <edge id="gneE125" from="gneJ116" to="gneJ117" priority="-1">
        <lane id="gneE125_0" index="0" speed="13.89" length="35.91" shape="-49.18,-185.02 -77.05,-170.65"/>
        <lane id="gneE125_1" index="1" speed="13.89" length="35.91" shape="-50.65,-187.87 -78.51,-173.50"/>
    </edge>
    <edge id="gneE126" from="gneJ117" to="gneJ118" priority="-1">
        <lane id="gneE126_0" index="0" speed="13.89" length="106.73" shape="-85.31,-165.38 -138.00,-84.14"/>
    </edge>
    <edge id="gneE127" from="gneJ34" to="gneJ119" priority="-1">
        <lane id="gneE127_0" index="0" speed="13.89" length="35.77" shape="-121.20,-89.00 -121.20,-116.79"/>
        <lane id="gneE127_1" index="1" speed="13.89" length="35.77" shape="-118.00,-89.00 -118.00,-116.79"/>
        <lane id="gneE127_2" index="2" speed="13.89" length="35.77" shape="-114.80,-89.00 -114.80,-116.79"/>
        <lane id="gneE127_3" index="3" speed="13.89" length="35.77" shape="-111.60,-89.00 -111.60,-116.79"/>
    </edge>
    <edge id="gneE128" from="gneJ119" to="gneJ120" priority="-1">
        <lane id="gneE128_0" index="0" speed="13.89" length="42.31" shape="-118.00,-123.58 -118.00,-154.16"/>
        <lane id="gneE128_1" index="1" speed="13.89" length="42.31" shape="-114.80,-123.58 -114.80,-154.16"/>
        <lane id="gneE128_2" index="2" speed="13.89" length="42.31" shape="-111.60,-123.58 -111.60,-154.16"/>
    </edge>
    <edge id="gneE129" from="gneJ118" to="gneJ121" priority="-1">
        <lane id="gneE129_0" index="0" speed="13.89" length="19.53" shape="-140.71,-82.13 -157.31,-77.39"/>
    </edge>
    <edge id="gneE13" from="gneJ16" to="gneJ17" priority="-1">
        <lane id="gneE13_0" index="0" speed="13.89" length="13.77" shape="-93.69,39.01 -83.68,47.27"/>
    </edge>
    <edge id="gneE130" from="gneJ121" to="gneJ122" priority="-1">
        <lane id="gneE130_0" index="0" speed="13.89" length="17.74" shape="-160.35,-77.53 -174.58,-82.99"/>
    </edge>
    <edge id="gneE131" from="gneJ122" to="gneJ123" priority="-1">
        <lane id="gneE131_0" index="0" speed="13.89" length="15.94" shape="-177.34,-85.76 -181.94,-97.79"/>
    </edge>
    <edge id="gneE132" from="gneJ123" to="gneJ124" priority="-1">
        <lane id="gneE132_0" index="0" speed="13.89" length="18.24" shape="-181.46,-102.14 -172.75,-115.35"/>
    </edge>
    <edge id="gneE133" from="gneJ124" to="gneJ125" priority="-1">
        <lane id="gneE133_0" index="0" speed="13.89" length="31.80" shape="-171.10,-116.89 -146.42,-130.80"/>
    </edge>
    <edge id="gneE134" from="gneJ119" to="gneJ126" priority="-1">
        <lane id="gneE134_0" index="0" speed="13.89" length="19.49" shape="-122.81,-120.72 -127.65,-125.64"/>
    </edge>
    <edge id="gneE135" from="gneJ126" to="gneJ125" priority="-1">
        <lane id="gneE135_0" index="0" speed="13.89" length="16.42" shape="-128.48,-126.09 -140.97,-128.63"/>
    </edge>
    <edge id="gneE136" from="gneJ117" to="gneJ127" priority="-1">
        <lane id="gneE136_0" index="0" speed="13.89" length="32.69" shape="-81.24,-163.96 -83.49,-140.85"/>
    </edge>
    <edge id="gneE137" from="gneJ127" to="gneJ119" priority="-1">
        <lane id="gneE137_0" index="0" speed="13.89" length="33.60" shape="-83.83,-140.00 -97.42,-123.10"/>
    </edge>
    <edge id="gneE138" from="gneJ120" to="gneJ128" priority="-1">
        <lane id="gneE138_0" index="0" speed="13.89" length="39.72" shape="-121.20,-162.84 -121.20,-188.42"/>
        <lane id="gneE138_1" index="1" speed="13.89" length="39.72" shape="-118.00,-162.84 -118.00,-188.42"/>
        <lane id="gneE138_2" index="2" speed="13.89" length="39.72" shape="-114.80,-162.84 -114.80,-188.42"/>
        <lane id="gneE138_3" index="3" speed="13.89" length="39.72" shape="-111.60,-162.84 -111.60,-188.42"/>
    </edge>
    <edge id="gneE139" from="gneJ128" to="gneJ129" priority="-1">
        <lane id="gneE139_0" index="0" speed="13.89" length="17.82" shape="-97.23,-189.06 -90.54,-182.11"/>
    </edge>
    <edge id="gneE14" from="gneJ17" to="gneJ9" priority="-1">
        <lane id="gneE14_0" index="0" speed="13.89" length="20.88" shape="-83.33,47.49 -70.55,53.38"/>
    </edge>
    <edge id="gneE140" from="gneJ129" to="gneJ117" priority="-1">
        <lane id="gneE140_0" index="0" speed="13.89" length="12.05" shape="-90.35,-181.94 -87.40,-179.70"/>
    </edge>
    <edge id="gneE141" from="gneJ125" to="gneJ130" priority="-1">
        <lane id="gneE141_0" index="0" speed="13.89" length="18.82" shape="-142.80,-132.92 -128.99,-141.49"/>
    </edge>
    <edge id="gneE142" from="gneJ130" to="gneJ120" priority="-1">
        <lane id="gneE142_0" index="0" speed="13.89" length="19.45" shape="-128.37,-142.20 -122.95,-154.53"/>
    </edge>
    <edge id="gneE143" from="gneJ128" to="gneJ131" priority="-1">
        <lane id="gneE143_0" index="0" speed="13.89" length="31.91" shape="-118.00,-192.94 -118.00,-216.00"/>
        <lane id="gneE143_1" index="1" speed="13.89" length="31.91" shape="-114.80,-192.94 -114.80,-216.00"/>
        <lane id="gneE143_2" index="2" speed="13.89" length="31.91" shape="-111.60,-192.94 -111.60,-216.00"/>
    </edge>
    <edge id="gneE144" from="gneJ131" to="gneJ132" priority="-1">
        <lane id="gneE144_0" index="0" speed="13.89" length="20.00" shape="-118.00,-224.00 -118.00,-240.00"/>
        <lane id="gneE144_1" index="1" speed="13.89" length="20.00" shape="-114.80,-224.00 -114.80,-240.00"/>
        <lane id="gneE144_2" index="2" speed="13.89" length="20.00" shape="-111.60,-224.00 -111.60,-240.00"/>
    </edge>
    <edge id="gneE15" from="gneJ12" to="gneJ19" priority="-1">
        <lane id="gneE15_0" index="0" speed="13.89" length="34.67" shape="-98.80,94.64 -98.80,116.00"/>
        <lane id="gneE15_1" index="1" speed="13.89" length="34.67" shape="-102.00,94.64 -102.00,116.00"/>
        <lane id="gneE15_2" index="2" speed="13.89" length="34.67" shape="-105.20,94.64 -105.20,116.00"/>
        <lane id="gneE15_3" index="3" speed="13.89" length="34.67" shape="-108.40,94.64 -108.40,116.00"/>
    </edge>
    <edge id="gneE16" from="gneJ13" to="gneJ21" priority="-1">
        <lane id="gneE16_0" index="0" speed="13.89" length="20.00" shape="-118.00,7.33 -118.00,4.00"/>
        <lane id="gneE16_1" index="1" speed="13.89" length="20.00" shape="-114.80,7.33 -114.80,4.00"/>
        <lane id="gneE16_2" index="2" speed="13.89" length="20.00" shape="-111.60,7.33 -111.60,4.00"/>
    </edge>
    <edge id="gneE17" from="gneJ13" to="gneJ22" priority="-1">
        <lane id="gneE17_0" index="0" speed="13.89" length="20.00" shape="-102.00,34.30 -102.00,36.00"/>
        <lane id="gneE17_1" index="1" speed="13.89" length="20.00" shape="-105.20,34.30 -105.20,36.00"/>
        <lane id="gneE17_2" index="2" speed="13.89" length="20.00" shape="-108.40,34.30 -108.40,36.00"/>
    </edge>
    <edge id="gneE18" from="gneJ12" to="gneJ22" priority="-1">
        <lane id="gneE18_0" index="0" speed="13.89" length="58.62" shape="-118.00,89.63 -118.00,44.00"/>
        <lane id="gneE18_1" index="1" speed="13.89" length="58.62" shape="-114.80,89.63 -114.80,44.00"/>
        <lane id="gneE18_2" index="2" speed="13.89" length="58.62" shape="-111.60,89.63 -111.60,44.00"/>
    </edge>
    <edge id="gneE20" from="gneJ11" to="gneJ24" priority="-1">
        <lane id="gneE20_0" index="0" speed="13.89" length="28.73" shape="-156.49,60.14 -179.41,46.43"/>
    </edge>
    <edge id="gneE21" from="gneJ24" to="gneJ25" priority="-1">
        <lane id="gneE21_0" index="0" speed="13.89" length="23.33" shape="-181.47,43.90 -188.38,24.30"/>
    </edge>
    <edge id="gneE22" from="gneJ25" to="gneJ26" priority="-1">
        <lane id="gneE22_0" index="0" speed="13.89" length="27.03" shape="-188.10,20.47 -176.90,-0.82"/>
    </edge>
    <edge id="gneE23" from="gneJ26" to="gneJ27" priority="-1">
        <lane id="gneE23_0" index="0" speed="13.89" length="34.05" shape="-173.46,-3.31 -143.96,-8.34"/>
    </edge>
    <edge id="gneE24" from="gneJ13" to="gneJ28" priority="-1">
        <lane id="gneE24_0" index="0" speed="13.89" length="26.82" shape="-122.56,7.83 -128.27,1.19"/>
    </edge>