<?xml version="1.0" encoding="UTF-8"?>

<!-- generated on 08/20/19 10:13:35 by Eclipse SUMO netedit Version v1_0_1+0383-8ba62d898b
<configuration xmlns:xsi="http://www.w3.org/2001/XMLSchema-instance" xsi:noNamespaceSchemaLocation="http://sumo.dlr.de/xsd/netconvertConfiguration.xsd">

    <input>
        <sumo-net-file value="C:\demand-supply-model\papers\sumo2grid\orlando-seg1\orlando-seg1.net.xml"/>
    </input>

    <output>
        <output-file value="C:\demand-supply-model\papers\sumo2grid\orlando-seg1\orlando-seg1.net.xml"/>
        <plain-output-prefix value="C:\demand-supply-model\papers\sumo2grid\orlando-seg1\orlando-seg1"/>
        <output.street-names value="true"/>
    </output>

    <processing>
        <offset.disable-normalization value="true"/>
        <lefthand value="false"/>
    </processing>

    <junctions>
        <no-turnarounds value="true"/>
        <junctions.corner-detail value="5"/>
        <junctions.limit-turn-speed value="5.5"/>
        <rectangular-lane-cut value="false"/>
    </junctions>

    <pedestrian>
        <walkingareas value="false"/>
    </pedestrian>

    <visualisation>
        <registry-viewport value="true"/>
    </visualisation>

</configuration>
-->

<tlLogics version="1.0" xmlns:xsi="http://www.w3.org/2001/XMLSchema-instance" xsi:noNamespaceSchemaLocation="http://sumo.dlr.de/xsd/tllogic_file.xsd">
    <tlLogic id="1700923661" type="static" programID="0" offset="0">
        <phase duration="42" state="GggGGgrrrrr"/>
        <phase duration="3"  state="yyyyyyrrrrr"/>
        <phase duration="42" state="rrrrrrGGGGG"/>
        <phase duration="3"  state="rrrrrryyyyy"/>
    </tlLogic>
    <tlLogic id="3675134324" type="static" programID="0" offset="0">
        <phase duration="42" state="GGggrrrrGGgg"/>
        <phase duration="3"  state="yyyyrrrryyyy"/>
        <phase duration="42" state="rrrrGGGgGrrr"/>
        <phase duration="3"  state="rrrryyyyyrrr"/>
    </tlLogic>
    <tlLogic id="4860700048" type="static" programID="0" offset="0">
        <phase duration="33" state="GGGggrrrrGGGggrrrr"/>
        <phase duration="6"  state="yyyyyrrrryyyyyrrrr"/>
        <phase duration="33" state="rrrrrGGrrrrrrrGGrr"/>
        <phase duration="6"  state="rrrrryyrrrrrrryyrr"/>
        <phase duration="6"  state="rrrrrrrGGrrrrrrrGG"/>
        <phase duration="6"  state="rrrrrrryyrrrrrrryy"/>
    </tlLogic>
    <tlLogic id="542892026" type="static" programID="0" offset="0">
        <phase duration="40" state="GGGrr"/>
        <phase duration="5"  state="yyyrr"/>
        <phase duration="40" state="rrrGG"/>
        <phase duration="5"  state="rrryy"/>
    </tlLogic>
    <tlLogic id="542892476" type="static" programID="0" offset="0">
        <phase duration="38" state="rrrgGGGgggg"/>
        <phase duration="3"  state="rrrgyyygggg"/>
        <phase duration="6"  state="rrrgrrrgGgg"/>
        <phase duration="3"  state="rrryrrryyyy"/>
        <phase duration="37" state="GGgGrrrrrrr"/>
        <phase duration="3"  state="yyyyrrrrrrr"/>
    </tlLogic>
    <tlLogic id="552610076" type="static" programID="0" offset="0">
        <phase duration="39" state="GGGrrrr"/>
        <phase duration="6"  state="yyyrrrr"/>
        <phase duration="39" state="rrrGGGG"/>
        <phase duration="6"  state="rrryyyy"/>
    </tlLogic>
    <tlLogic id="552610206" type="static" programID="0" offset="0">
        <phase duration="40" state="GGgGggrrr"/>
        <phase duration="5"  state="yyyyyyrrr"/>
        <phase duration="40" state="GrrrrrGGg"/>
        <phase duration="5"  state="yrrrrryyy"/>
    </tlLogic>
    <tlLogic id="555658004" type="static" programID="0" offset="0">
        <phase duration="35" state="rrrrGGrrrrrrGGrr"/>
        <phase duration="5"  state="rrrryyrrrrrryyrr"/>
        <phase duration="6"  state="rrrrrrGGrrrrrrGG"/>
        <phase duration="5"  state="rrrrrryyrrrrrryy"/>
        <phase duration="34" state="GGggrrrrGGggrrrr"/>
        <phase duration="5"  state="yyyyrrrryyyyrrrr"/>
    </tlLogic>
    <tlLogic id="559373573" type="static" programID="0" offset="0">
        <phase duration="39" state="ggggrrrGGGGG"/>
        <phase duration="6"  state="yyyyrrryyyyy"/>
        <phase duration="39" state="GrrrGGgrrrrr"/>
        <phase duration="6"  state="yrrryyyrrrrr"/>
    </tlLogic>
    <tlLogic id="599933698" type="static" programID="0" offset="0">
        <phase duration="80" state="GGgGGg"/>
        <phase duration="5"  state="yyyyyy"/>
        <phase duration="5"  state="rrrrrr"/>
    </tlLogic>
    <tlLogic id="6151828718" type="static" programID="0" offset="0">
        <phase duration="40" state="GGGggrrrrGGGggrrrr"/>
        <phase duration="5"  state="yyyyyrrrryyyyyrrrr"/>
        <phase duration="40" state="rrrrrGGggrrrrrGGgg"/>
        <phase duration="5"  state="rrrrryyyyrrrrryyyy"/>
    </tlLogic>
    <tlLogic id="639101651" type="static" programID="0" offset="0">
        <phase duration="39" state="GGGrrrr"/>
        <phase duration="6"  state="yyyrrrr"/>
        <phase duration="39" state="rrrGGGG"/>
        <phase duration="6"  state="rrryyyy"/>
    </tlLogic>
    <tlLogic id="922163493" type="static" programID="0" offset="0">
        <phase duration="39" state="GGggrrrrGGGg"/>
        <phase duration="6"  state="yyyyrrrryyyy"/>
        <phase duration="39" state="rrrrGGGgGrrr"/>
        <phase duration="6"  state="rrrryyyyyrrr"/>
    </tlLogic>
    <tlLogic id="99447055" type="static" programID="0" offset="0">
        <phase duration="35" state="gggrrrgGGGg"/>
        <phase duration="5"  state="gggrrrgyyyg"/>
        <phase duration="6"  state="Gggrrrgrrrg"/>
        <phase duration="5"  state="yyyrrryrrry"/>
        <phase duration="34" state="GrrGGgrrrrr"/>
        <phase duration="5"  state="yrryyyrrrrr"/>
    </tlLogic>
    <tlLogic id="99461555" type="static" programID="0" offset="0">
        <phase duration="42" state="GGGgrrrrrGgg"/>
        <phase duration="3"  state="yyyyrrrrryyy"/>
        <phase duration="42" state="rrrrGGGGGrrr"/>
        <phase duration="3"  state="rrrryyyyyrrr"/>
    </tlLogic>
    <tlLogic id="99468986" type="static" programID="0" offset="0">
        <phase duration="42" state="GGGggrrrrrGGGggrrrrr"/>
        <phase duration="3"  state="yyyyyrrrrryyyyyrrrrr"/>
        <phase duration="42" state="rrrrrGGGggrrrrrGGGgg"/>
        <phase duration="3"  state="rrrrryyyyyrrrrryyyyy"/>
    </tlLogic>
    <tlLogic id="99469120" type="static" programID="0" offset="0">
        <phase duration="40" state="rrrrGGggrrrrGGgg"/>
        <phase duration="5"  state="rrrryyyyrrrryyyy"/>
        <phase duration="40" state="GGggrrrrGGggrrrr"/>
        <phase duration="5"  state="yyyyrrrryyyyrrrr"/>
    </tlLogic>
    <tlLogic id="99471264" type="static" programID="0" offset="0">
        <phase duration="40" state="GGGgGgggrrrrrrrr"/>
        <phase duration="5"  state="yyyyyyyyrrrrrrrr"/>
        <phase duration="40" state="rrrrrrrrGGGgGggg"/>
        <phase duration="5"  state="rrrrrrrryyyyyyyy"/>
    </tlLogic>
    <tlLogic id="99471316" type="static" programID="0" offset="0">
        <phase duration="33" state="rrrrrGGGggrrrrrGGGrr"/>
        <phase duration="6"  state="rrrrryyyggrrrrryyyrr"/>
        <phase duration="6"  state="rrrrrrrrGGrrrrrrrrGG"/>
        <phase duration="6"  state="rrrrrrrryyrrrrrrrryy"/>
        <phase duration="33" state="GGGggrrrrrGGGggrrrrr"/>
        <phase duration="6"  state="yyyyyrrrrryyyyyrrrrr"/>
    </tlLogic>
    <tlLogic id="99472173" type="static" programID="0" offset="0">
        <phase duration="39" state="rrrrrGggGGg"/>
        <phase duration="6"  state="rrrrryyyyyy"/>
        <phase duration="39" state="GGGGGrrrrrr"/>
        <phase duration="6"  state="yyyyyrrrrrr"/>
    </tlLogic>
    <tlLogic id="99472176" type="static" programID="0" offset="0">
        <phase duration="39" state="GggGGgrrrr"/>
        <phase duration="6"  state="yyyyyyrrrr"/>
        <phase duration="39" state="rrrrrrGGGG"/>
        <phase duration="6"  state="rrrrrryyyy"/>
    </tlLogic>
    <tlLogic id="99474300" type="static" programID="0" offset="0">
        <phase duration="35" state="GrrGGrrrrr"/>
        <phase duration="5"  state="yrryyrrrrr"/>
        <phase duration="6"  state="rGGrrGrrrr"/>
        <phase duration="5"  state="ryyrryrrrr"/>
        <phase duration="34" state="rrrrrrGGGG"/>
        <phase duration="5"  state="rrrrrryyyy"/>
    </tlLogic>
    <tlLogic id="99475157" type="static" programID="0" offset="0">
        <phase duration="42" state="GGgrrrGgg"/>
        <phase duration="3"  state="yyyrrryyy"/>
        <phase duration="42" state="rrrGGGrrr"/>
        <phase duration="3"  state="rrryyyrrr"/>
    </tlLogic>
    <tlLogic id="99475159" type="static" programID="0" offset="0">
        <phase duration="40" state="GGgrrrGgg"/>
        <phase duration="5"  state="yyyrrryyy"/>
        <phase duration="40" state="rrrGGGrrr"/>
        <phase duration="5"  state="rrryyyrrr"/>
    </tlLogic>
    <tlLogic id="99475163" type="static" programID="0" offset="0">
        <phase duration="40" state="GGgrrrGgg"/>
        <phase duration="5"  state="yyyrrryyy"/>
        <phase duration="40" state="rrrGGGrrr"/>
        <phase duration="5"  state="rrryyyrrr"/>
    </tlLogic>
    <tlLogic id="99475166" type="static" programID="0" offset="0">
        <phase duration="40" state="GGgrrrrrGgg"/>
        <phase duration="5"  state="yyyrrrrryyy"/>
        <phase duration="40" state="rrrGGGGGrrr"/>
        <phase duration="5"  state="rrryyyyyrrr"/>
    </tlLogic>
    <tlLogic id="99475171" type="static" programID="0" offset="0">
        <phase duration="42" state="GGgrrrrrGgg"/>
        <phase duration="3"  state="yyyrrrrryyy"/>
        <phase duration="42" state="rrrGGGGGrrr"/>
        <phase duration="3"  state="rrryyyyyrrr"/>
    </tlLogic>
    <tlLogic id="99475173" type="static" programID="0" offset="0">
        <phase duration="40" state="GGGgrrrrrGGgg"/>
        <phase duration="5"  state="yyyyrrrrryyyy"/>
        <phase duration="40" state="rrrrGGGGGrrrr"/>
        <phase duration="5"  state="rrrryyyyyrrrr"/>
    </tlLogic>
    <tlLogic id="99480295" type="static" programID="0" offset="0">
        <phase duration="40" state="GGgGggrrr"/>
        <phase duration="5"  state="yyyyyyrrr"/>
        <phase duration="40" state="GrrrrrGGg"/>
        <phase duration="5"  state="yrrrrryyy"/>
    </tlLogic>
    <tlLogic id="99480298" type="static" programID="0" offset="0">
        <phase duration="40" state="GggrrrGGg"/>
        <phase duration="5"  state="yyyrrryyy"/>
        <phase duration="40" state="rrrGGgGrr"/>
        <phase duration="5"  state="rrryyyyrr"/>
    </tlLogic>
    <tlLogic id="99480300" type="static" programID="0" offset="0">
        <phase duration="40" state="rrrrGggGGg"/>
        <phase duration="5"  state="rrrryyyyyy"/>
        <phase duration="40" state="GGGGrrrrrr"/>
        <phase duration="5"  state="yyyyrrrrrr"/>
    </tlLogic>
    <tlLogic id="99480303" type="static" programID="0" offset="0">
        <phase duration="40" state="GGgrrrrGgg"/>
        <phase duration="5"  state="yyyrrrryyy"/>
        <phase duration="40" state="rrrGGGGrrr"/>
        <phase duration="5"  state="rrryyyyrrr"/>
    </tlLogic>
    <tlLogic id="99480313" type="static" programID="0" offset="0">
        <phase duration="40" state="rrrrGGGggrrrrGGGgg"/>
        <phase duration="5"  state="rrrryyyyyrrrryyyyy"/>
        <phase duration="40" state="GGggrrrrrGGggrrrrr"/>
        <phase duration="5"  state="yyyyrrrrryyyyrrrrr"/>
    </tlLogic>
    <tlLogic id="99480486" type="static" programID="0" offset="0">
        <phase duration="40" state="rrrrGGggrrrrGGgg"/>
        <phase duration="5"  state="rrrryyyyrrrryyyy"/>
        <phase duration="40" state="GGggrrrrGGggrrrr"/>
        <phase duration="5"  state="yyyyrrrryyyyrrrr"/>
    </tlLogic>
    <tlLogic id="99480495" type="static" programID="0" offset="0">
        <phase duration="40" state="rrrrrGggGGGg"/>
        <phase duration="5"  state="rrrrryyyyyyy"/>
        <phase duration="40" state="GGGGGrrrrrrr"/>
        <phase duration="5"  state="yyyyyrrrrrrr"/>
    </tlLogic>
    <tlLogic id="99480515" type="static" programID="0" offset="0">
        <phase duration="40" state="rrrrGGggrrrrGGgg"/>
        <phase duration="5"  state="rrrryyyyrrrryyyy"/>
        <phase duration="40" state="GGggrrrrGGggrrrr"/>
        <phase duration="5"  state="yyyyrrrryyyyrrrr"/>
    </tlLogic>
    <tlLogic id="99488096" type="static" programID="0" offset="0">
        <phase duration="40" state="GggGGgrrrr"/>
        <phase duration="5"  state="yyyyyyrrrr"/>
        <phase duration="40" state="rrrrrrGGGG"/>
        <phase duration="5"  state="rrrrrryyyy"/>
    </tlLogic>
    <tlLogic id="99488106" type="static" programID="0" offset="0">
        <phase duration="33" state="GGrrrrrrGrr"/>
        <phase duration="6"  state="yyrrrrrryrr"/>
        <phase duration="6"  state="rrGrrrrrrGG"/>
        <phase duration="6"  state="rryrrrrrryy"/>
        <phase duration="33" state="rrrGGGGGrrr"/>
        <phase duration="6"  state="rrryyyyyrrr"/>
    </tlLogic>
    <tlLogic id="99488109" type="static" programID="0" offset="0">
        <phase duration="39" state="GGgrrrrrGgg"/>
        <phase duration="6"  state="yyyrrrrryyy"/>
        <phase duration="39" state="rrrGGGGGrrr"/>
        <phase duration="6"  state="rrryyyyyrrr"/>
    </tlLogic>
    <tlLogic id="99488110" type="static" programID="0" offset="0">
        <phase duration="39" state="GGgrrrrrGgg"/>
        <phase duration="6"  state="yyyrrrrryyy"/>
        <phase duration="39" state="rrrGGGGGrrr"/>
        <phase duration="6"  state="rrryyyyyrrr"/>
    </tlLogic>
    <tlLogic id="99489011" type="static" programID="0" offset="0">
        <phase duration="40" state="GGgrrrrGgg"/>
        <phase duration="5"  state="yyyrrrryyy"/>
        <phase duration="40" state="rrrGGGGrrr"/>
        <phase duration="5"  state="rrryyyyrrr"/>
    </tlLogic>
    <tlLogic id="99490711" type="static" programID="0" offset="0">
        <phase duration="42" state="GGgrrGGg"/>
        <phase duration="3"  state="yyyrryyy"/>
        <phase duration="42" state="rrrGGrrr"/>
        <phase duration="3"  state="rrryyrrr"/>
    </tlLogic>
    <tlLogic id="99497765" type="static" programID="0" offset="0">
        <phase duration="40" state="GGggGGGgrrrrrr"/>
        <phase duration="5"  state="yyyyyyyyrrrrrr"/>
        <phase duration="40" state="rrrrrrrrGGGGGG"/>
        <phase duration="5"  state="rrrrrrrryyyyyy"/>
    </tlLogic>
    <tlLogic id="99497779" type="static" programID="0" offset="0">
        <phase duration="40" state="rrrrGGggrrrrGGgg"/>
        <phase duration="5"  state="rrrryyyyrrrryyyy"/>
        <phase duration="40" state="GGggrrrrGGggrrrr"/>
        <phase duration="5"  state="yyyyrrrryyyyrrrr"/>
    </tlLogic>
    <tlLogic id="99497783" type="static" programID="0" offset="0">
        <phase duration="42" state="rrrrGGGggrrrrGGGgg"/>
        <phase duration="3"  state="rrrryyyyyrrrryyyyy"/>
        <phase duration="42" state="GGggrrrrrGGggrrrrr"/>
        <phase duration="3"  state="yyyyrrrrryyyyrrrrr"/>
    </tlLogic>
    <tlLogic id="99497791" type="static" programID="0" offset="0">
        <phase duration="42" state="rrrrGGggrrrrGGgg"/>
        <phase duration="3"  state="rrrryyyyrrrryyyy"/>
        <phase duration="42" state="GGggrrrrGGggrrrr"/>
        <phase duration="3"  state="yyyyrrrryyyyrrrr"/>
    </tlLogic>
    <tlLogic id="99498261" type="static" programID="0" offset="0">
        <phase duration="40" state="GGGgGGggrrr"/>
        <phase duration="5"  state="yyyyyyyyrrr"/>
        <phase duration="40" state="GrrrrrrrGGg"/>
        <phase duration="5"  state="yrrrrrrryyy"/>
    </tlLogic>
    <tlLogic id="99508441" type="static" programID="0" offset="0">
        <phase duration="38" state="GgGgrrrr"/>
        <phase duration="3"  state="ygygrrrr"/>
        <phase duration="6"  state="rGrGrrrr"/>
        <phase duration="3"  state="ryryrrrr"/>
        <phase duration="37" state="rrrrGGGG"/>
        <phase duration="3"  state="rrrryyyy"/>
    </tlLogic>
    <tlLogic id="99508446" type="static" programID="0" offset="0">
        <phase duration="42" state="GGrr"/>
        <phase duration="3"  state="yyrr"/>
        <phase duration="42" state="rrGG"/>
        <phase duration="3"  state="rryy"/>
    </tlLogic>
    <tlLogic id="99508449" type="static" programID="0" offset="0">
        <phase duration="42" state="GGgGrrrr"/>
        <phase duration="3"  state="yyyyrrrr"/>
        <phase duration="42" state="rrrGGGGG"/>
        <phase duration="3"  state="rrryyyyy"/>
    </tlLogic>
    <tlLogic id="99513584" type="static" programID="0" offset="0">
        <phase duration="40" state="GGggGGgrrrrr"/>
        <phase duration="5"  state="yyyyyyyrrrrr"/>
        <phase duration="40" state="rrrrrrrGGGGG"/>
        <phase duration="5"  state="rrrrrrryyyyy"/>
    </tlLogic>
    <tlLogic id="99513605" type="static" programID="0" offset="0">
        <phase duration="39" state="rrrrGGggrrrrGGgg"/>
        <phase duration="6"  state="rrrryyyyrrrryyyy"/>
        <phase duration="39" state="GGggrrrrGGggrrrr"/>
        <phase duration="6"  state="yyyyrrrryyyyrrrr"/>
    </tlLogic>
    <tlLogic id="99513607" type="static" programID="0" offset="0">
        <phase duration="40" state="GGggrrrrGGggrrrr"/>
        <phase duration="5"  state="yyyyrrrryyyyrrrr"/>
        <phase duration="40" state="rrrrGGggrrrrGGgg"/>
        <phase duration="5"  state="rrrryyyyrrrryyyy"/>
    </tlLogic>
    <tlLogic id="99513615" type="static" programID="0" offset="0">
        <phase duration="40" state="rrrrGGggrrrrGGgg"/>
        <phase duration="5"  state="rrrryyyyrrrryyyy"/>
        <phase duration="40" state="GGggrrrrGGggrrrr"/>
        <phase duration="5"  state="yyyyrrrryyyyrrrr"/>
    </tlLogic>
    <tlLogic id="99513631" type="static" programID="0" offset="0">
        <phase duration="35" state="rrrrGGGggrrrrGGGgg"/>
        <phase duration="5"  state="rrrryyyyyrrrryyyyy"/>
        <phase duration="34" state="GGrrrrrrrGGrrrrrrr"/>
        <phase duration="5"  state="yyrrrrrrryyrrrrrrr"/>
        <phase duration="6"  state="rrGGrrrrrrrGGrrrrr"/>
        <phase duration="5"  state="rryyrrrrrrryyrrrrr"/>
    </tlLogic>
    <tlLogic id="99524982" type="static" programID="0" offset="0">
        <phase duration="42" state="GGGggrrrrGGGggrrrr"/>
        <phase duration="3"  state="yyyyyrrrryyyyyrrrr"/>
        <phase duration="42" state="rrrrrGGggrrrrrGGgg"/>
        <phase duration="3"  state="rrrrryyyyrrrrryyyy"/>
    </tlLogic>
    <tlLogic id="99526700" type="static" programID="0" offset="0">
        <phase duration="40" state="GGggrrrrGGggrrrr"/>
        <phase duration="5"  state="yyyyrrrryyyyrrrr"/>
        <phase duration="40" state="rrrrGGggrrrrGGgg"/>
        <phase duration="5"  state="rrrryyyyrrrryyyy"/>
    </tlLogic>
    <tlLogic id="99526705" type="static" programID="0" offset="0">
        <phase duration="40" state="GGggrrrrGGggrrrr"/>
        <phase duration="5"  state="yyyyrrrryyyyrrrr"/>
        <phase duration="40" state="rrrrGGggrrrrGGgg"/>
        <phase duration="5"  state="rrrryyyyrrrryyyy"/>
    </tlLogic>
    <tlLogic id="99526713" type="static" programID="0" offset="0">
        <phase duration="33" state="GgggrrrrrrrrGGGg"/>
        <phase duration="6"  state="yyyyrrrrrrrryyyy"/>
        <phase duration="33" state="rrrrGGGrGrrrrrrr"/>
        <phase duration="6"  state="rrrryyyryrrrrrrr"/>
        <phase duration="6"  state="rrrrrrrGrGGGrrrr"/>
        <phase duration="6"  state="rrrrrrryryyyrrrr"/>
    </tlLogic>
    <tlLogic id="99534636" type="static" programID="0" offset="0">
        <phase duration="41" state="rrrGGGgGGgg"/>
        <phase duration="4"  state="rrryyyyyyyy"/>
        <phase duration="41" state="GGgGrrrrrrr"/>
        <phase duration="4"  state="yyyyrrrrrrr"/>
    </tlLogic>
    <tlLogic id="99535393" type="static" programID="0" offset="0">
        <phase duration="40" state="rrrGGgGgg"/>
        <phase duration="5"  state="rrryyyyyy"/>
        <phase duration="40" state="GGgGrrrrr"/>
        <phase duration="5"  state="yyyyrrrrr"/>
    </tlLogic>
    <tlLogic id="99536690" type="static" programID="0" offset="0">
        <phase duration="42" state="rrrrGGggrrrrGGgg"/>
        <phase duration="3"  state="rrrryyyyrrrryyyy"/>
        <phase duration="42" state="GGggrrrrGGggrrrr"/>
        <phase duration="3"  state="yyyyrrrryyyyrrrr"/>
    </tlLogic>
    <tlLogic id="99538679" type="static" programID="0" offset="0">
        <phase duration="42" state="GggGGgrrrrr"/>
        <phase duration="3"  state="yyyyyyrrrrr"/>
        <phase duration="42" state="rrrrrrGGGGG"/>
        <phase duration="3"  state="rrrrrryyyyy"/>
    </tlLogic>
    <tlLogic id="99543549" type="static" programID="0" offset="0">
        <phase duration="40" state="GGGgrrrrrrrrrGGgg"/>
        <phase duration="5"  state="yyyyrrrrrrrrryyyy"/>
        <phase duration="40" state="rrrrgggggGGGGrrrr"/>
        <phase duration="5"  state="rrrryyyyyyyyyrrrr"/>
    </tlLogic>
    <tlLogic id="99543553" type="static" programID="0" offset="0">
        <phase duration="40" state="GGggGGGgrrrrrr"/>
        <phase duration="5"  state="yyyyyyyyrrrrrr"/>
        <phase duration="40" state="rrrrrrrrGGGGGG"/>
        <phase duration="5"  state="rrrrrrrryyyyyy"/>
    </tlLogic>
    <tlLogic id="99543556" type="static" programID="0" offset="0">
        <phase duration="35" state="GGGrrrrrrGGrrrrrr"/>
        <phase duration="5"  state="yyyrrrrrryyrrrrrr"/>
        <phase duration="6"  state="rrrGGrrrrrrGGrrrr"/>
        <phase duration="5"  state="rrryyrrrrrryyrrrr"/>
        <phase duration="34" state="rrrrrGGggrrrrGGgg"/>
        <phase duration="5"  state="rrrrryyyyrrrryyyy"/>
    </tlLogic>
    <tlLogic id="99543560" type="static" programID="0" offset="0">
        <phase duration="40" state="rrrrGGGgGGgg"/>
        <phase duration="5"  state="rrrryyyyyyyy"/>
        <phase duration="40" state="GGGgGrrrrrrr"/>
        <phase duration="5"  state="yyyyyrrrrrrr"/>
    </tlLogic>
    <tlLogic id="99545629" type="static" programID="0" offset="0">
        <phase duration="40" state="GGGggrrrrGGGggrrrr"/>
        <phase duration="5"  state="yyyyyrrrryyyyyrrrr"/>
        <phase duration="40" state="rrrrrGGggrrrrrGGgg"/>
        <phase duration="5"  state="rrrrryyyyrrrrryyyy"/>
    </tlLogic>
    <tlLogic id="99545631" type="static" programID="0" offset="0">
        <phase duration="40" state="GGGggrrrrGGGggrrrr"/>
        <phase duration="5"  state="yyyyyrrrryyyyyrrrr"/>
        <phase duration="40" state="rrrrrGGggrrrrrGGgg"/>
        <phase duration="5"  state="rrrrryyyyrrrrryyyy"/>
    </tlLogic>
    <tlLogic id="99545634" type="static" programID="0" offset="0">
        <phase duration="40" state="rrrrrGGGggrrrrrGGGgg"/>
        <phase duration="5"  state="rrrrryyyyyrrrrryyyyy"/>
        <phase duration="40" state="GGGggrrrrrGGGggrrrrr"/>
        <phase duration="5"  state="yyyyyrrrrryyyyyrrrrr"/>
    </tlLogic>
    <tlLogic id="99545638" type="static" programID="0" offset="0">
        <phase duration="40" state="rrrrGGGggrrrrGGGgg"/>
        <phase duration="5"  state="rrrryyyyyrrrryyyyy"/>
        <phase duration="40" state="GGggrrrrrGGggrrrrr"/>
        <phase duration="5"  state="yyyyrrrrryyyyrrrrr"/>
    </tlLogic>
    <tlLogic id="99545648" type="static" programID="0" offset="0">
        <phase duration="40" state="rrrrGGGggrrrrGGGgg"/>
        <phase duration="5"  state="rrrryyyyyrrrryyyyy"/>
        <phase duration="40" state="GGggrrrrrGGggrrrrr"/>
        <phase duration="5"  state="yyyyrrrrryyyyrrrrr"/>
    </tlLogic>
    <tlLogic id="99550497" type="static" programID="0" offset="0">
        <phase duration="42" state="GggGGgrrrrrr"/>
        <phase duration="3"  state="yyyyyyrrrrrr"/>
        <phase duration="42" state="rrrrrrGGGGGG"/>
        <phase duration="3"  state="rrrrrryyyyyy"/>
    </tlLogic>
    <tlLogic id="99552040" type="static" programID="0" offset="0">
        <phase duration="42" state="rrrrGGGggrrrrGGGgg"/>
        <phase duration="3"  state="rrrryyyyyrrrryyyyy"/>
        <phase duration="42" state="GGggrrrrrGGggrrrrr"/>
        <phase duration="3"  state="yyyyrrrrryyyyrrrrr"/>
    </tlLogic>
    <tlLogic id="99552366" type="static" programID="0" offset="0">
        <phase duration="40" state="GggGGgrrrrr"/>
        <phase duration="5"  state="yyyyyyrrrrr"/>
        <phase duration="40" state="rrrrrrGGGGG"/>
        <phase duration="5"  state="rrrrrryyyyy"/>
    </tlLogic>
    <tlLogic id="99552367" type="static" programID="0" offset="0">
        <phase duration="42" state="GGggGGGgrrrrrr"/>
        <phase duration="3"  state="yyyyyyyyrrrrrr"/>
        <phase duration="42" state="rrrrrrrrGGGGGG"/>
        <phase duration="3"  state="rrrrrrrryyyyyy"/>
    </tlLogic>
    <tlLogic id="99552371" type="static" programID="0" offset="0">
        <phase duration="40" state="GggGGgrrrrrr"/>
        <phase duration="5"  state="yyyyyyrrrrrr"/>
        <phase duration="40" state="rrrrrrGGGGGG"/>
        <phase duration="5"  state="rrrrrryyyyyy"/>
    </tlLogic>
    <tlLogic id="99552382" type="static" programID="0" offset="0">
        <phase duration="40" state="GGggrrrGGGg"/>
        <phase duration="5"  state="yyyyrrryyyy"/>
        <phase duration="40" state="rrrrGGgGrrr"/>
        <phase duration="5"  state="rrrryyyyrrr"/>
    </tlLogic>
    <tlLogic id="99556903" type="static" programID="0" offset="0">
        <phase duration="42" state="GGrr"/>
        <phase duration="3"  state="yyrr"/>
        <phase duration="42" state="rrGG"/>
        <phase duration="3"  state="rryy"/>
    </tlLogic>
    <tlLogic id="99556907" type="static" programID="0" offset="0">
        <phase duration="42" state="GGgrrrrGgg"/>
        <phase duration="3"  state="yyyrrrryyy"/>
        <phase duration="42" state="rrrGGGGrrr"/>
        <phase duration="3"  state="rrryyyyrrr"/>
    </tlLogic>
    <tlLogic id="99561760" type="static" programID="0" offset="0">
        <phase duration="42" state="GGgrrrrrGgg"/>
        <phase duration="3"  state="yyyrrrrryyy"/>
        <phase duration="42" state="rrrGGGGGrrr"/>
        <phase duration="3"  state="rrryyyyyrrr"/>
    </tlLogic>
    <tlLogic id="99566528" type="static" programID="0" offset="0">
        <phase duration="40" state="GGggrrrrGGggrrrr"/>
        <phase duration="5"  state="yyyyrrrryyyyrrrr"/>
        <phase duration="40" state="rrrrGGggrrrrGGgg"/>
        <phase duration="5"  state="rrrryyyyrrrryyyy"/>
    </tlLogic>
    <tlLogic id="99570935" type="static" programID="0" offset="0">
        <phase duration="42" state="rrrrrGGggGGGg"/>
        <phase duration="3"  state="rrrrryyyyyyyy"/>
        <phase duration="42" state="GGGGGrrrrrrrr"/>
        <phase duration="3"  state="yyyyyrrrrrrrr"/>
    </tlLogic>
    <tlLogic id="99575503" type="static" programID="0" offset="0">
        <phase duration="40" state="rrrrGGGggrrrrGGGgg"/>
        <phase duration="5"  state="rrrryyyyyrrrryyyyy"/>
        <phase duration="40" state="GGggrrrrrGGggrrrrr"/>
        <phase duration="5"  state="yyyyrrrrryyyyrrrrr"/>
    </tlLogic>
    <tlLogic id="99575515" type="static" programID="0" offset="0">
        <phase duration="42" state="GGGggrrrrGGGggrrrr"/>
        <phase duration="3"  state="yyyyyrrrryyyyyrrrr"/>
        <phase duration="42" state="rrrrrGGggrrrrrGGgg"/>
        <phase duration="3"  state="rrrrryyyyrrrrryyyy"/>
    </tlLogic>
    <tlLogic id="99576192" type="static" programID="0" offset="0">
        <phase duration="39" state="GGGggrrrrGGGggrrrr"/>
        <phase duration="6"  state="yyyyyrrrryyyyyrrrr"/>
        <phase duration="39" state="rrrrrGGggrrrrrGGgg"/>
        <phase duration="6"  state="rrrrryyyyrrrrryyyy"/>
    </tlLogic>
    <tlLogic id="99577631" type="static" programID="0" offset="0">
        <phase duration="42" state="rrrrGGGggrrrrGGGgg"/>
        <phase duration="3"  state="rrrryyyyyrrrryyyyy"/>
        <phase duration="42" state="GGggrrrrrGGggrrrrr"/>
        <phase duration="3"  state="yyyyrrrrryyyyrrrrr"/>
    </tlLogic>
    <tlLogic id="99577635" type="static" programID="0" offset="0">
        <phase duration="40" state="GGggrrrrGGggrrrr"/>
        <phase duration="5"  state="yyyyrrrryyyyrrrr"/>
        <phase duration="40" state="rrrrGGggrrrrGGgg"/>
        <phase duration="5"  state="rrrryyyyrrrryyyy"/>
    </tlLogic>
    <tlLogic id="99577647" type="static" programID="0" offset="0">
        <phase duration="40" state="rrrrGGggrrrrGGgg"/>
        <phase duration="5"  state="rrrryyyyrrrryyyy"/>
        <phase duration="40" state="GGggrrrrGGggrrrr"/>
        <phase duration="5"  state="yyyyrrrryyyyrrrr"/>
    </tlLogic>
    <tlLogic id="99578377" type="static" programID="0" offset="0">
        <phase duration="42" state="rrrrrGGGGggrrrrrGGGggg"/>
        <phase duration="3"  state="rrrrryyyyyyrrrrryyyyyy"/>
        <phase duration="42" state="GGGggrrrrrrGGgggrrrrrr"/>
        <phase duration="3"  state="yyyyyrrrrrryyyyyrrrrrr"/>
    </tlLogic>
    <tlLogic id="99579525" type="static" programID="0" offset="0">
        <phase duration="40" state="GGGgrrrrGGgg"/>
        <phase duration="5"  state="yyyyrrrryyyy"/>
        <phase duration="40" state="rrrrGGGGrrrr"/>
        <phase duration="5"  state="rrrryyyyrrrr"/>
    </tlLogic>
    <tlLogic id="99581816" type="static" programID="0" offset="0">
        <phase duration="40" state="GGGgrrrrGGgg"/>
        <phase duration="5"  state="yyyyrrrryyyy"/>
        <phase duration="40" state="rrrrGGGGrrrr"/>
        <phase duration="5"  state="rrrryyyyrrrr"/>
    </tlLogic>
    <tlLogic id="99582333" type="static" programID="0" offset="0">
        <phase duration="42" state="GGGGGrrr"/>
        <phase duration="3"  state="yyyyyrrr"/>
        <phase duration="42" state="GrrrrGGg"/>
        <phase duration="3"  state="yrrrryyy"/>
    </tlLogic>
    <tlLogic id="99582337" type="static" programID="0" offset="0">