<?xml version="1.0" encoding="UTF-8"?>

<!-- generated on 08/20/19 10:13:35 by Eclipse SUMO netedit Version v1_0_1+0383-8ba62d898b
<configuration xmlns:xsi="http://www.w3.org/2001/XMLSchema-instance" xsi:noNamespaceSchemaLocation="http://sumo.dlr.de/xsd/netconvertConfiguration.xsd">

    <input>
        <sumo-net-file value="C:\demand-supply-model\papers\sumo2grid\orlando-seg1\orlando-seg1.net.xml"/>
    </input>

    <output>
        <output-file value="C:\demand-supply-model\papers\sumo2grid\orlando-seg1\orlando-seg1.net.xml"/>
        <plain-output-prefix value="C:\demand-supply-model\papers\sumo2grid\orlando-seg1\orlando-seg1"/>
        <output.street-names value="true"/>
    </output>

    <processing>
        <offset.disable-normalization value="true"/>
        <lefthand value="false"/>
    </processing>

    <junctions>
        <no-turnarounds value="true"/>
        <junctions.corner-detail value="5"/>
        <junctions.limit-turn-speed value="5.5"/>
        <rectangular-lane-cut value="false"/>
    </junctions>

    <pedestrian>
        <walkingareas value="false"/>
    </pedestrian>

    <visualisation>
        <registry-viewport value="true"/>
    </visualisation>

</configuration>
-->

<edges version="1.0" xmlns:xsi="http://www.w3.org/2001/XMLSchema-instance" xsi:noNamespaceSchemaLocation="http://sumo.dlr.de/xsd/edges_file.xsd">
    <edge id="-104081860#0" from="cluster_99577639_99577641" to="1201200223" name="Fern Creek Avenue" priority="6" type="highway.tertiary" numLanes="1" speed="22.22" shape="4827.82,4739.42 4829.45,4657.69" disallow="tram rail_urban rail rail_electric ship"/>
    <edge id="-104081860#2" from="99577643" to="cluster_99577639_99577641" name="Fern Creek Avenue" priority="6" type="highway.tertiary" numLanes="1" speed="22.22" shape="4827.36,4792.05 4828.31,4762.82" disallow="tram rail_urban rail rail_electric ship"/>
    <edge id="-104081860#3" from="99577644" to="99577643" name="Fern Creek Avenue" priority="6" type="highway.tertiary" numLanes="1" speed="22.22" disallow="tram rail_urban rail rail_electric ship"/>
    <edge id="-104081861#0" from="2195233213" to="1201200164" name="Fern Creek Avenue" priority="6" type="highway.tertiary" numLanes="1" speed="13.41" disallow="tram rail_urban rail rail_electric ship"/>
    <edge id="-104081861#1" from="99577631" to="2195233213" name="Fern Creek Avenue" priority="6" type="highway.tertiary" numLanes="1" speed="13.41" disallow="tram rail_urban rail rail_electric ship"/>
    <edge id="-104081861#2" from="2195233224" to="99577631" name="Fern Creek Avenue" priority="6" type="highway.tertiary" numLanes="1" speed="13.41" disallow="tram rail_urban rail rail_electric ship"/>
    <edge id="-104081861#3" from="6321526582" to="2195233224" name="Fern Creek Avenue" priority="6" type="highway.tertiary" numLanes="1" speed="13.41" disallow="tram rail_urban rail rail_electric ship"/>
    <edge id="-104081861#4" from="1201200159" to="6321526582" name="Fern Creek Avenue" priority="6" type="highway.tertiary" numLanes="1" speed="13.41" disallow="tram rail_urban rail rail_electric ship"/>
    <edge id="-104081862#0" from="2191985603" to="1201200198" name="Fern Creek Avenue" priority="6" type="highway.tertiary" numLanes="1" speed="13.41" disallow="tram rail_urban rail rail_electric ship"/>
    <edge id="-104081862#1" from="99545629" to="2191985603" name="Fern Creek Avenue" priority="6" type="highway.tertiary" numLanes="1" speed="13.41" disallow="tram rail_urban rail rail_electric ship"/>
    <edge id="-104081862#2" from="2191985959" to="99545629" name="Fern Creek Avenue" priority="6" type="highway.tertiary" numLanes="1" speed="13.41" disallow="tram rail_urban rail rail_electric ship"/>
    <edge id="-104081862#3" from="1201200223" to="2191985959" name="Fern Creek Avenue" priority="6" type="highway.tertiary" numLanes="1" speed="13.41" disallow="tram rail_urban rail rail_electric ship"/>
    <edge id="-104081868#0" from="99577633" to="1201200159" name="Fern Creek Avenue" priority="6" type="highway.tertiary" numLanes="1" speed="22.22" disallow="tram rail_urban rail rail_electric ship"/>
    <edge id="-104081868#1" from="2199385365" to="99577633" name="Fern Creek Avenue" priority="6" type="highway.tertiary" numLanes="1" speed="22.22" disallow="tram rail_urban rail rail_electric ship"/>
    <edge id="-104081868#2" from="99577635" to="2199385365" name="Fern Creek Avenue" priority="6" type="highway.tertiary" numLanes="1" speed="22.22" disallow="tram rail_urban rail rail_electric ship"/>
    <edge id="-11171001#0" from="99446667" to="99446663" name="Clear Lake Way" priority="4" type="highway.residential" numLanes="1" speed="13.89" shape="1383.67,3028.59 1389.70,3037.81 1445.71,3123.87 1447.60,3126.62 1453.16,3134.74" disallow="tram rail_urban rail rail_electric ship"/>
    <edge id="-11171001#1" from="99446669" to="99446667" name="Clear Lake Way" priority="4" type="highway.residential" numLanes="1" speed="13.89" shape="1317.35,2929.48 1324.95,2940.84 1325.98,2942.38 1378.38,3020.64 1383.67,3028.59" disallow="tram rail_urban rail rail_electric ship"/>
    <edge id="-11172277" from="99453757" to="99453755" priority="4" type="highway.residential" numLanes="1" speed="13.89" shape="1885.56,5046.69 1887.87,5037.79 1887.01,5027.53 1883.55,5019.17 1875.49,5010.05" disallow="tram rail_urban rail rail_electric ship"/>
    <edge id="-11175992" from="2206644372" to="99465265" name="Victor Avenue" priority="4" type="highway.residential" numLanes="1" speed="13.89" disallow="tram rail_urban rail rail_electric ship"/>
    <edge id="-11176175" from="2203600998" to="99466093" name="Alabama Place" priority="4" type="highway.residential" numLanes="1" speed="13.89" disallow="tram rail_urban rail rail_electric ship"/>
    <edge id="-11176209" from="99466234" to="99466232" name="Hillcrest Street" priority="4" type="highway.residential" numLanes="1" speed="13.89" shape="3379.31,4470.61 3221.73,4469.90 3210.71,4469.83" disallow="tram rail_urban rail rail_electric ship"/>
    <edge id="-11176217#0" from="5788937621" to="99466255" name="Hillcrest Street" priority="4" type="highway.residential" numLanes="1" speed="13.89" shape="4444.91,4466.82 4437.82,4466.75 4434.33,4466.77 4425.62,4466.83" disallow="tram rail_urban rail rail_electric ship"/>
    <edge id="-11176217#1" from="5788937619" to="5788937621" name="Hillcrest Street" priority="4" type="highway.residential" numLanes="1" speed="13.89" disallow="tram rail_urban rail rail_electric ship"/>
    <edge id="-11176217#2" from="5788937622" to="5788937619" name="Hillcrest Street" priority="4" type="highway.residential" numLanes="1" speed="13.89" disallow="tram rail_urban rail rail_electric ship"/>
    <edge id="-11176217#3" from="5788937627" to="5788937622" name="Hillcrest Street" priority="4" type="highway.residential" numLanes="1" speed="13.89" disallow="tram rail_urban rail rail_electric ship"/>
    <edge id="-11176217#4" from="5788937630" to="5788937627" name="Hillcrest Street" priority="4" type="highway.residential" numLanes="1" speed="13.89" disallow="tram rail_urban rail rail_electric ship"/>
    <edge id="-11176217#5" from="99466260" to="5788937630" name="Hillcrest Street" priority="4" type="highway.residential" numLanes="1" speed="13.89" shape="4598.98,4463.91 4590.96,4463.79 4519.07,4465.49" disallow="tram rail_urban rail rail_electric ship"/>
    <edge id="-11176282" from="2207811450" to="99466501" name="Latta Lane" priority="4" type="highway.residential" numLanes="1" speed="13.89" shape="2199.47,5407.11 2199.76,5373.00 2199.85,5363.76" disallow="tram rail_urban rail rail_electric ship"/>
    <edge id="-11176376#0" from="99563972" to="99582893" name="Callahan Drive" priority="4" type="highway.residential" numLanes="1" speed="13.89" shape="2303.55,2329.76 2411.41,2330.50 2420.19,2330.56" disallow="tram rail_urban rail rail_electric ship"/>
    <edge id="-11176376#1" from="99466894" to="99563972" name="Callahan Drive" priority="4" type="highway.residential" numLanes="1" speed="13.89" shape="2175.24,2332.25 2182.84,2328.96 2303.55,2329.76" disallow="tram rail_urban rail rail_electric ship"/>
    <edge id="-11176415#0" from="99467123" to="99467122" name="Lake Avenue" priority="4" type="highway.residential" numLanes="1" speed="13.89" shape="3596.00,3257.63 3595.92,3264.39 3594.72,3354.27 3594.61,3362.17" disallow="tram rail_urban rail rail_electric ship"/>
    <edge id="-11176415#1" from="99467124" to="99467123" name="Lake Avenue" priority="4" type="highway.residential" numLanes="1" speed="13.89" shape="3597.22,3162.88 3597.12,3170.62 3597.08,3173.72 3596.11,3249.46 3596.00,3257.63" disallow="tram rail_urban rail rail_electric ship"/>
    <edge id="-11176424#0" from="6364226716" to="99467164" name="Lake Avenue" priority="4" type="highway.residential" numLanes="1" speed="13.89" shape="3635.72,2583.32 3633.61,2730.93 3633.55,2733.21 3633.37,2741.52" disallow="tram rail_urban rail rail_electric ship"/>
    <edge id="-11176424#1" from="99467166" to="6364226716" name="Lake Avenue" priority="4" type="highway.residential" numLanes="1" speed="13.89" disallow="tram rail_urban rail rail_electric ship"/>
    <edge id="-11176618" from="813768795" to="813768803" name="Agnes Court" priority="4" type="highway.residential" numLanes="1" speed="13.89" shape="3297.38,2346.70 3295.41,2344.09 3294.74,2339.14 3295.21,2273.09" disallow="tram rail_urban rail rail_electric ship"/>
    <edge id="-11176828#0" from="2198940190" to="99469117" name="Rio Grande Avenue" priority="6" type="highway.tertiary" numLanes="1" speed="22.22" shape="802.13,3151.76 803.66,3184.40 805.15,3202.01 810.09,3228.63 815.19,3260.58 815.39,3282.39 813.49,3300.53 805.22,3338.01 802.38,3348.56 789.99,3373.84" disallow="tram rail_urban rail rail_electric ship"/>
    <edge id="-11176828#1" from="99469120" to="2198940190" name="Rio Grande Avenue" priority="6" type="highway.tertiary" numLanes="1" speed="22.22" disallow="tram rail_urban rail rail_electric ship"/>
    <edge id="-11177064#0" from="99470437" to="99470433" name="Woodland Street" priority="4" type="highway.residential" numLanes="1" speed="13.89" shape="4453.98,1137.27 4425.51,1137.49 4401.51,1141.34 4388.92,1144.91 4376.08,1152.13 4316.63,1191.73" disallow="tram rail_urban rail rail_electric ship"/>
    <edge id="-11177064#1" from="2208656113" to="99470437" name="Woodland Street" priority="4" type="highway.residential" numLanes="1" speed="13.89" disallow="tram rail_urban rail rail_electric ship"/>
    <edge id="-11177066" from="2208656117" to="99470450" name="Woodland Street" priority="4" type="highway.residential" numLanes="1" speed="13.89" shape="3702.25,1175.89 3654.48,1175.69 3648.07,1175.67" disallow="tram rail_urban rail rail_electric ship"/>
    <edge id="-11177184" from="2208065626" to="99471030" name="Richmond Street" priority="4" type="highway.residential" numLanes="1" speed="13.89" disallow="tram rail_urban rail rail_electric ship"/>
    <edge id="-11177185" from="2208065629" to="99471038" name="Richmond Street" priority="4" type="highway.residential" numLanes="1" speed="13.89" disallow="tram rail_urban rail rail_electric ship"/>
    <edge id="-11177209#0" from="2199385140" to="99471264" name="Gore Street" priority="6" type="highway.tertiary" numLanes="1" speed="22.22" disallow="tram rail_urban rail rail_electric ship"/>
    <edge id="-11177209#1" from="99471267" to="2199385140" name="Gore Street" priority="6" type="highway.tertiary" numLanes="1" speed="22.22" disallow="tram rail_urban rail rail_electric ship"/>
    <edge id="-11177209#2" from="99471269" to="99471267" name="Gore Street" priority="6" type="highway.tertiary" numLanes="1" speed="22.22" disallow="tram rail_urban rail rail_electric ship"/>
    <edge id="-11177209#3" from="cluster_832477830_99471272" to="99471269" name="Gore Street" priority="6" type="highway.tertiary" numLanes="1" speed="22.22" shape="4785.08,2148.45 4631.95,2147.61" disallow="tram rail_urban rail rail_electric ship"/>
    <edge id="-11177209#5" from="2252343203" to="cluster_832477830_99471272" name="Gore Street" priority="6" type="highway.tertiary" numLanes="1" speed="22.22" shape="4851.48,2148.91 4799.90,2148.54" disallow="tram rail_urban rail rail_electric ship"/>
    <edge id="-11177211" from="2208065657" to="99471306" name="Gore Street" priority="4" type="highway.residential" numLanes="1" speed="13.89" disallow="tram rail_urban rail rail_electric ship"/>
    <edge id="-11177266" from="2208065621" to="cluster_912650203_99471523" name="Annie Street" priority="4" type="highway.residential" numLanes="1" speed="13.89" shape="3338.48,1931.34 3251.70,1902.90 3239.89,1899.02" disallow="tram rail_urban rail rail_electric ship"/>
    <edge id="-11177371" from="99472123" to="99472121" name="Lowrie Avenue" priority="4" type="highway.residential" numLanes="1" speed="13.89" disallow="tram rail_urban rail rail_electric ship"/>
    <edge id="-11177374" from="2208656131" to="99472129" name="Hull Circle" priority="4" type="highway.residential" numLanes="1" speed="13.89" disallow="tram rail_urban rail rail_electric ship"/>
    <edge id="-11177382#0" from="99472159" to="813808617" name="Hughey Avenue" priority="4" type="highway.residential" numLanes="1" speed="13.89" shape="2632.33,2279.36 2616.32,2445.97 2616.47,2449.75 2617.66,2452.10" disallow="tram rail_urban rail rail_electric ship"/>
    <edge id="-11177382#1" from="5828734743" to="99472159" name="Hughey Avenue" priority="4" type="highway.residential" numLanes="1" speed="13.89" disallow="tram rail_urban rail rail_electric ship"/>
    <edge id="-11177382#2" from="99472165" to="5828734743" name="Hughey Avenue" priority="4" type="highway.residential" numLanes="1" speed="13.89" shape="2644.58,2129.60 2643.70,2140.35 2636.80,2224.67 2636.73,2225.54" disallow="tram rail_urban rail rail_electric ship"/>
    <edge id="-11177382#3" from="99472166" to="99472165" name="Hughey Avenue" priority="4" type="highway.residential" numLanes="1" speed="13.89" disallow="tram rail_urban rail rail_electric ship"/>
    <edge id="-11177382#4" from="99472168" to="99472166" name="Hughey Avenue" priority="4" type="highway.residential" numLanes="1" speed="13.89" disallow="tram rail_urban rail rail_electric ship"/>
    <edge id="-11177387#0" from="99641704" to="99489630" name="East Harding Street" priority="4" type="highway.residential" numLanes="1" speed="13.89" disallow="tram rail_urban rail rail_electric ship"/>
    <edge id="-11177387#1" from="2184672938" to="99641704" name="East Harding Street" priority="4" type="highway.residential" numLanes="1" speed="13.89" disallow="tram rail_urban rail rail_electric ship"/>
    <edge id="-11177710" from="815781372" to="99474340" priority="4" type="highway.residential" numLanes="1" speed="13.89" shape="4557.87,2653.37 4559.73,2657.54 4560.80,2664.72 4559.72,2742.91" disallow="tram rail_urban rail rail_electric ship"/>
    <edge id="-11177891" from="2203601041" to="99475901" name="Hames Avenue" priority="4" type="highway.residential" numLanes="1" speed="13.89" shape="1300.97,3904.47 1301.60,3759.49 1301.61,3758.43 1301.64,3750.03" disallow="tram rail_urban rail rail_electric ship"/>
    <edge id="-11177893" from="2203601058" to="99475911" name="Hames Avenue" priority="4" type="highway.residential" numLanes="1" speed="13.89" shape="1333.58,4177.73 1333.60,4166.71 1333.60,4163.22 1333.62,4153.14" disallow="tram rail_urban rail rail_electric ship"/>
    <edge id="-11177921" from="99476115" to="99476113" name="Antigua Drive" priority="4" type="highway.residential" numLanes="1" speed="13.89" disallow="tram rail_urban rail rail_electric ship"/>
    <edge id="-11177970#0" from="99476468" to="99476470" name="Cathcart Avenue" priority="4" type="highway.residential" numLanes="1" speed="13.89" shape="3825.77,3849.35 3825.68,3857.65 3825.66,3859.40 3824.77,3939.93 3824.41,3943.86 3823.72,3951.28" disallow="tram rail_urban rail rail_electric ship"/>
    <edge id="-11177970#1" from="5843376176" to="99476468" name="Cathcart Avenue" priority="4" type="highway.residential" numLanes="1" speed="13.89" shape="3825.92,3809.50 3825.92,3838.13 3825.87,3842.19 3825.77,3849.35" disallow="tram rail_urban rail rail_electric ship"/>
    <edge id="-11177970#2" from="99476466" to="5843376176" name="Cathcart Avenue" priority="4" type="highway.residential" numLanes="1" speed="13.89" shape="3827.16,3747.03 3827.02,3757.07 3825.92,3809.50" disallow="tram rail_urban rail rail_electric ship"/>
    <edge id="-11177996" from="813795892" to="99476640" name="America Street" priority="4" type="highway.residential" numLanes="1" speed="13.89" shape="1485.94,2438.01 1481.73,2434.76 1476.88,2433.86 1428.07,2434.02 1419.67,2434.05" disallow="tram rail_urban rail rail_electric ship"/>
    <edge id="-11177999" from="99476658" to="99476656" name="America Street" priority="4" type="highway.residential" numLanes="1" speed="13.89" shape="1790.67,2455.02 1798.53,2455.07 1855.22,2455.47" disallow="tram rail_urban rail rail_electric ship"/>
    <edge id="-11178001#0" from="99476666" to="99476664" name="America Street" priority="4" type="highway.residential" numLanes="1" speed="13.89" shape="2892.02,2457.45 2919.42,2460.77 2922.54,2461.15" disallow="tram rail_urban rail rail_electric ship"/>
    <edge id="-11178001#1" from="5795039650" to="99476666" name="America Street" priority="4" type="highway.residential" numLanes="1" speed="13.89" disallow="tram rail_urban rail rail_electric ship"/>
    <edge id="-11178001#2" from="5795039862" to="5795039650" name="America Street" priority="4" type="highway.residential" numLanes="1" speed="13.89" disallow="tram rail_urban rail rail_electric ship"/>
    <edge id="-11178001#3" from="5795039865" to="5795039862" name="America Street" priority="4" type="highway.residential" numLanes="1" speed="13.89" disallow="tram rail_urban rail rail_electric ship"/>
    <edge id="-11178001#4" from="5795039873" to="5795039865" name="America Street" priority="4" type="highway.residential" numLanes="1" speed="13.89" disallow="tram rail_urban rail rail_electric ship"/>
    <edge id="-11178001#5" from="99476668" to="5795039873" name="America Street" priority="4" type="highway.residential" numLanes="1" speed="13.89" disallow="tram rail_urban rail rail_electric ship"/>
    <edge id="-11178001#6" from="2204097339" to="99476668" name="America Street" priority="4" type="highway.residential" numLanes="1" speed="13.89" disallow="tram rail_urban rail rail_electric ship"/>
    <edge id="-11178001#7" from="2203363319" to="2204097339" name="America Street" priority="4" type="highway.residential" numLanes="1" speed="13.89" disallow="tram rail_urban rail rail_electric ship"/>
    <edge id="-11178045" from="99477193" to="99477190" name="22nd Street" priority="4" type="highway.residential" numLanes="1" speed="13.89" disallow="tram rail_urban rail rail_electric ship"/>
    <edge id="-11178104" from="99477480" to="99477479" name="Purdue Street" priority="4" type="highway.residential" numLanes="1" speed="13.89" shape="3745.45,1535.29 3736.08,1533.96 3653.39,1533.58 3645.78,1533.55" disallow="tram rail_urban rail rail_electric ship"/>
    <edge id="-11178464#0" from="99480337" to="99480339" name="Parramore Avenue" priority="6" type="highway.tertiary" numLanes="1" speed="22.22" shape="2033.97,1017.37 2035.35,923.96 2035.48,915.98" disallow="tram rail_urban rail rail_electric ship"/>
    <edge id="-11178464#1" from="99480335" to="99480337" name="Parramore Avenue" priority="6" type="highway.tertiary" numLanes="1" speed="22.22" disallow="tram rail_urban rail rail_electric ship"/>
    <edge id="-11178488#0" from="2198939885" to="cluster_99480527_99550198" name="Summerlin Avenue" priority="6" type="highway.tertiary" numLanes="1" speed="22.22" shape="4051.86,939.25 4051.96,931.28" disallow="tram rail_urban rail rail_electric ship"/>
    <edge id="-11178488#1" from="1700027521" to="2198939885" name="Summerlin Avenue" priority="6" type="highway.tertiary" numLanes="1" speed="22.22" disallow="tram rail_urban rail rail_electric ship"/>
    <edge id="-11178577" from="99481200" to="99481194" name="Plymouth Avenue" priority="4" type="highway.residential" numLanes="1" speed="13.89" shape="975.17,1923.81 973.95,2126.94 973.90,2134.63" disallow="tram rail_urban rail rail_electric ship"/>
    <edge id="-11178755#0" from="2208065796" to="813768795" name="Agnes Street" priority="4" type="highway.residential" numLanes="1" speed="13.89" shape="3353.28,2348.47 3302.89,2348.37 3299.88,2348.00 3297.38,2346.70" disallow="tram rail_urban rail rail_electric ship"/>
    <edge id="-11178755#1" from="552611144" to="2208065796" name="Agnes Street" priority="4" type="highway.residential" numLanes="1" speed="13.89" shape="3414.40,2349.63 3405.42,2349.45 3404.06,2349.42 3353.28,2348.47" disallow="tram rail_urban rail rail_electric ship"/>
    <edge id="-11178843" from="99483403" to="99469032" name="24th Street" priority="4" type="highway.residential" numLanes="1" speed="13.89" shape="1018.20,602.86 826.04,600.44 813.85,600.29" disallow="tram rail_urban rail rail_electric ship"/>
    <edge id="-11178932" from="99484118" to="907290151" name="Spring Lake Drive" priority="4" type="highway.residential" numLanes="1" speed="13.89" shape="1294.59,4831.03 1320.10,4852.24 1331.08,4859.09 1342.49,4863.94 1355.34,4866.16" disallow="tram rail_urban rail rail_electric ship"/>
    <edge id="-11178934" from="2246281414" to="99484162" name="Spring Lake Drive" priority="4" type="highway.residential" numLanes="1" speed="13.89" disallow="tram rail_urban rail rail_electric ship"/>
    <edge id="-11178957" from="2203601008" to="99484319" name="Ossie Street" priority="4" type="highway.residential" numLanes="1" speed="13.89" shape="2170.02,3494.45 2205.58,3494.34 2214.63,3494.31" disallow="tram rail_urban rail rail_electric ship"/>
    <edge id="-11178970" from="99484379" to="99469009" name="Clear Lake Avenue" priority="4" type="highway.residential" numLanes="1" speed="13.89" shape="671.24,1061.78 712.99,1062.07 819.33,1063.23" disallow="tram rail_urban rail rail_electric ship"/>
    <edge id="-11179409#0" from="599899068" to="633281497" name="Palmetto Avenue" priority="4" type="highway.residential" numLanes="1" speed="13.89" shape="3202.98,3852.94 3154.77,3853.63 3151.20,3853.65" disallow="tram rail_urban rail rail_electric ship"/>
    <edge id="-11179409#1" from="5368780205" to="599899068" name="Palmetto Avenue" priority="4" type="highway.residential" numLanes="1" speed="13.89" shape="3219.19,3846.43 3217.28,3848.42 3215.17,3850.10 3211.10,3851.66 3207.18,3852.57 3202.98,3852.94" disallow="tram rail_urban rail rail_electric ship"/>
    <edge id="-11179409#2" from="5369264471" to="5368780205" name="Palmetto Avenue" priority="4" type="highway.residential" numLanes="1" speed="13.89" shape="3220.36,3793.36 3219.86,3842.02 3219.80,3844.32 3219.19,3846.43" disallow="tram rail_urban rail rail_electric ship"/>
    <edge id="-11179409#3" from="5369264453" to="5369264471" name="Palmetto Avenue" priority="4" type="highway.residential" numLanes="1" speed="13.89" disallow="tram rail_urban rail rail_electric ship"/>
    <edge id="-11179409#4" from="99489491" to="5369264453" name="Palmetto Avenue" priority="4" type="highway.residential" numLanes="1" speed="13.89" shape="3219.16,3743.17 3220.79,3751.19 3220.46,3783.38" disallow="tram rail_urban rail rail_electric ship"/>
    <edge id="-11179409#5" from="5369372038" to="99489491" name="Palmetto Avenue" priority="4" type="highway.residential" numLanes="1" speed="13.89" shape="3216.77,3716.45 3216.71,3730.50 3217.35,3733.83 3219.16,3743.17" disallow="tram rail_urban rail rail_electric ship"/>
    <edge id="-11179409#6" from="5369372490" to="5369372038" name="Palmetto Avenue" priority="4" type="highway.residential" numLanes="1" speed="13.89" disallow="tram rail_urban rail rail_electric ship"/>
    <edge id="-11179409#7" from="5369372483" to="5369372490" name="Palmetto Avenue" priority="4" type="highway.residential" numLanes="1" speed="13.89" disallow="tram rail_urban rail rail_electric ship"/>
    <edge id="-11179409#8" from="5369372480" to="5369372483" name="Palmetto Avenue" priority="4" type="highway.residential" numLanes="1" speed="13.89" disallow="tram rail_urban rail rail_electric ship"/>
    <edge id="-11179409#9" from="99489489" to="5369372480" name="Palmetto Avenue" priority="4" type="highway.residential" numLanes="1" speed="13.89" disallow="tram rail_urban rail rail_electric ship"/>
    <edge id="-11179423" from="2253088091" to="99477482" name="Osceola Avenue" priority="4" type="highway.residential" numLanes="1" speed="13.89" disallow="tram rail_urban rail rail_electric ship"/>
    <edge id="-11179430" from="2208656243" to="99489712" name="Osceola Avenue" priority="4" type="highway.residential" numLanes="1" speed="13.89" disallow="tram rail_urban rail rail_electric ship"/>
    <edge id="-11179432" from="1700922893" to="cluster_99489708_99489720" name="Osceola Avenue" priority="4" type="highway.residential" numLanes="1" speed="13.89" shape="3836.59,1788.36 3836.48,1828.29" disallow="tram rail_urban rail rail_electric ship"/>
    <edge id="-11179466" from="912650077" to="99490128" name="Fernwood Street" priority="4" type="highway.residential" numLanes="1" speed="13.89" shape="3316.11,1471.44 3252.63,1471.07 3241.56,1471.01" disallow="tram rail_urban rail rail_electric ship"/>
    <edge id="-11179494" from="814490680" to="99490394" name="Seminole Avenue" priority="4" type="highway.residential" numLanes="1" speed="13.89" shape="1933.26,4615.79 1933.66,4573.31 1933.68,4570.92 1933.81,4557.91" disallow="tram rail_urban rail rail_electric ship"/>
    <edge id="-11179545" from="99490707" to="99490708" name="Lawsona Boulevard" priority="4" type="highway.residential" numLanes="1" speed="13.89" disallow="tram rail_urban rail rail_electric ship"/>
    <edge id="-11179884#0" from="99493394" to="99493392" name="Pine Bluff Avenue" priority="4" type="highway.residential" numLanes="1" speed="13.89" disallow="tram rail_urban rail rail_electric ship"/>
    <edge id="-11179884#1" from="99493396" to="99493394" name="Pine Bluff Avenue" priority="4" type="highway.residential" numLanes="1" speed="13.89" disallow="tram rail_urban rail rail_electric ship"/>
    <edge id="-11179884#2" from="989965053" to="99493396" name="Pine Bluff Avenue" priority="4" type="highway.residential" numLanes="1" speed="13.89" disallow="tram rail_urban rail rail_electric ship"/>
    <edge id="-11179884#3" from="99493397" to="989965053" name="Pine Bluff Avenue" priority="4" type="highway.residential" numLanes="1" speed="13.89" disallow="tram rail_urban rail rail_electric ship"/>
    <edge id="-11179886" from="99470440" to="99493404" name="Pine Bluff Avenue" priority="4" type="highway.residential" numLanes="1" speed="13.89" disallow="tram rail_urban rail rail_electric ship"/>
    <edge id="-11179939#0" from="99493804" to="99493802" name="Hill Avenue" priority="4" type="highway.residential" numLanes="1" speed="13.89" shape="4113.11,3516.70 4113.22,3507.04 4115.07,3357.07 4115.09,3355.48 4115.20,3346.67" disallow="tram rail_urban rail rail_electric ship"/>
    <edge id="-11179939#1" from="99493807" to="99493804" name="Hill Avenue" priority="4" type="highway.residential" numLanes="1" speed="13.89" shape="4111.39,3639.39 4111.49,3632.66 4111.54,3628.55 4112.97,3526.36 4113.11,3516.70" disallow="tram rail_urban rail rail_electric ship"/>
    <edge id="-11180130#0" from="cluster_5716238463_99496413" to="99496414" name="Whittier Circle" priority="4" type="highway.residential" numLanes="1" speed="13.89" shape="3479.21,1387.09 3485.57,1387.61 3498.64,1389.68 3513.49,1393.07 3535.75,1401.74 3560.04,1418.29 3566.38,1422.61" disallow="tram rail_urban rail rail_electric ship"/>
    <edge id="-11180130#2" from="99496409" to="cluster_5716238463_99496413" name="Whittier Circle" priority="4" type="highway.residential" numLanes="1" speed="13.89" shape="3377.34,1433.57 3382.76,1428.00 3396.69,1413.67 3409.79,1404.52 3423.48,1397.20 3440.98,1391.56 3453.56,1388.78 3463.14,1387.27 3468.81,1386.89" disallow="tram rail_urban rail rail_electric ship"/>
    <edge id="-11180285#0" from="99497767" to="cluster_5310327611_5310328443_5338027258_5338027259_559854170_559854181_559854328_559854351_99475168" name="Amelia Street" priority="4" type="highway.residential" numLanes="1" speed="13.89" shape="3293.84,4155.18 3237.91,4155.49" disallow="tram rail_urban rail rail_electric ship"/>
    <edge id="-11180285#1" from="5811916387" to="99497767" name="Amelia Street" priority="4" type="highway.residential" numLanes="1" speed="13.89" disallow="tram rail_urban rail rail_electric ship"/>
    <edge id="-11180285#2" from="99497770" to="5811916387" name="Amelia Street" priority="4" type="highway.residential" numLanes="1" speed="13.89" disallow="tram rail_urban rail rail_electric ship"/>
    <edge id="-11180285#3" from="cluster_559372807_99497773" to="99497770" name="Amelia Street" priority="4" type="highway.residential" numLanes="1" speed="13.89" shape="3502.29,4155.19 3401.02,4155.63" disallow="tram rail_urban rail rail_electric ship"/>
    <edge id="-11180285#5" from="99497775" to="cluster_559372807_99497773" name="Amelia Street" priority="4" type="highway.residential" numLanes="1" speed="13.89" shape="3618.78,4154.73 3608.81,4154.81 3517.51,4155.53" disallow="tram rail_urban rail rail_electric ship"/>
    <edge id="-11180285#6" from="99476475" to="99497775" name="Amelia Street" priority="4" type="highway.residential" numLanes="1" speed="13.89" shape="3820.68,4155.67 3627.70,4154.77 3618.78,4154.73" disallow="tram rail_urban rail rail_electric ship"/>
    <edge id="-11180335#0" from="2195307409" to="99498261" name="Columbia Street" priority="6" type="highway.tertiary" numLanes="1" speed="22.22" disallow="tram rail_urban rail rail_electric ship"/>