<?xml version="1.0" encoding="UTF-8"?>

<!-- generated on 08/20/19 10:13:35 by Eclipse SUMO netedit Version v1_0_1+0383-8ba62d898b
<configuration xmlns:xsi="http://www.w3.org/2001/XMLSchema-instance" xsi:noNamespaceSchemaLocation="http://sumo.dlr.de/xsd/netconvertConfiguration.xsd">

    <input>
        <sumo-net-file value="C:\demand-supply-model\papers\sumo2grid\orlando-seg1\orlando-seg1.net.xml"/>
    </input>

    <output>
        <output-file value="C:\demand-supply-model\papers\sumo2grid\orlando-seg1\orlando-seg1.net.xml"/>
        <plain-output-prefix value="C:\demand-supply-model\papers\sumo2grid\orlando-seg1\orlando-seg1"/>
        <output.street-names value="true"/>
    </output>

    <processing>
        <offset.disable-normalization value="true"/>
        <lefthand value="false"/>
    </processing>

    <junctions>
        <no-turnarounds value="true"/>
        <junctions.corner-detail value="5"/>
        <junctions.limit-turn-speed value="5.5"/>
        <rectangular-lane-cut value="false"/>
    </junctions>

    <pedestrian>
        <walkingareas value="false"/>
    </pedestrian>

    <visualisation>
        <registry-viewport value="true"/>
    </visualisation>

</configuration>
-->

<connections version="1.0" xmlns:xsi="http://www.w3.org/2001/XMLSchema-instance" xsi:noNamespaceSchemaLocation="http://sumo.dlr.de/xsd/connections_file.xsd">
    <connection from="-104081860#0" to="-11201189" fromLane="0" toLane="0"/>
    <connection from="-104081860#0" to="-104081862#3" fromLane="0" toLane="0"/>
    <connection from="-104081860#0" to="210605894" fromLane="0" toLane="0"/>
    <connection from="-104081860#0" to="104081860#0" fromLane="0" toLane="0"/>

    <connection from="-104081860#2" to="-11203585" fromLane="0" toLane="0"/>
    <connection from="-104081860#2" to="-104081860#0" fromLane="0" toLane="0"/>
    <connection from="-104081860#2" to="11203074#0" fromLane="0" toLane="0"/>
    <connection from="-104081860#2" to="104081860#2" fromLane="0" toLane="0"/>

    <connection from="-104081860#3" to="-215344920#2" fromLane="0" toLane="0"/>
    <connection from="-104081860#3" to="-104081860#2" fromLane="0" toLane="0"/>
    <connection from="-104081860#3" to="104081860#3" fromLane="0" toLane="0"/>

    <connection from="-104081861#0" to="-73540480#2" fromLane="0" toLane="0"/>
    <connection from="-104081861#0" to="104081861#0" fromLane="0" toLane="0"/>

    <connection from="-104081861#1" to="-104081861#0" fromLane="0" toLane="0"/>
    <connection from="-104081861#1" to="104081861#1" fromLane="0" toLane="0"/>

    <connection from="-104081861#2" to="-156772091#5" fromLane="0" toLane="0"/>
    <connection from="-104081861#2" to="-104081861#1" fromLane="0" toLane="0"/>
    <connection from="-104081861#2" to="156772091#6" fromLane="0" toLane="1"/>
    <connection from="-104081861#2" to="104081861#2" fromLane="0" toLane="0"/>

    <connection from="-104081861#3" to="-104081861#2" fromLane="0" toLane="0"/>
    <connection from="-104081861#3" to="104081861#3" fromLane="0" toLane="0"/>

    <connection from="-104081861#4" to="-104081861#3" fromLane="0" toLane="0"/>
    <connection from="-104081861#4" to="104081861#4" fromLane="0" toLane="0"/>

    <connection from="-104081862#0" to="-75459746#8" fromLane="0" toLane="0"/>
    <connection from="-104081862#0" to="104081862#0" fromLane="0" toLane="0"/>

    <connection from="-104081862#1" to="-104081862#0" fromLane="0" toLane="0"/>
    <connection from="-104081862#1" to="104081862#1" fromLane="0" toLane="0"/>

    <connection from="-104081862#2" to="-196818520#3" fromLane="0" toLane="0"/>
    <connection from="-104081862#2" to="-104081862#1" fromLane="0" toLane="0"/>
    <connection from="-104081862#2" to="215344910#0" fromLane="0" toLane="1"/>
    <connection from="-104081862#2" to="104081862#2" fromLane="0" toLane="0"/>

    <connection from="-104081862#3" to="-104081862#2" fromLane="0" toLane="0"/>
    <connection from="-104081862#3" to="104081862#3" fromLane="0" toLane="0"/>

    <connection from="-104081868#0" to="-104081861#4" fromLane="0" toLane="0"/>
    <connection from="-104081868#0" to="104081868#0" fromLane="0" toLane="0"/>

    <connection from="-104081868#1" to="-67567288#7" fromLane="0" toLane="0"/>
    <connection from="-104081868#1" to="-104081868#0" fromLane="0" toLane="0"/>
    <connection from="-104081868#1" to="127605069" fromLane="0" toLane="0"/>
    <connection from="-104081868#1" to="104081868#1" fromLane="0" toLane="0"/>

    <connection from="-104081868#2" to="-104081868#1" fromLane="0" toLane="0"/>
    <connection from="-104081868#2" to="104081868#2" fromLane="0" toLane="0"/>

    <connection from="-11171001#0" to="-210328289#1" fromLane="0" toLane="0"/>
    <connection from="-11171001#0" to="210328289#2" fromLane="0" toLane="0"/>
    <connection from="-11171001#0" to="11171001#0" fromLane="0" toLane="0"/>

    <connection from="-11171001#1" to="-215958380#0" fromLane="0" toLane="0"/>
    <connection from="-11171001#1" to="-11171001#0" fromLane="0" toLane="0"/>
    <connection from="-11171001#1" to="215958380#1" fromLane="0" toLane="0"/>
    <connection from="-11171001#1" to="11171001#1" fromLane="0" toLane="0"/>

    <connection from="-11172277" to="210709301#0" fromLane="0" toLane="0"/>
    <connection from="-11172277" to="-210709300" fromLane="0" toLane="0"/>
    <connection from="-11172277" to="11172277" fromLane="0" toLane="0"/>

    <connection from="-11175992" to="11192210" fromLane="0" toLane="0"/>
    <connection from="-11175992" to="11175992" fromLane="0" toLane="0"/>

    <connection from="-11176175" to="-210272752" fromLane="0" toLane="0"/>
    <connection from="-11176175" to="11176175" fromLane="0" toLane="0"/>

    <connection from="-11176209" to="80664415#10" fromLane="0" toLane="0"/>
    <connection from="-11176209" to="11176209" fromLane="0" toLane="0"/>

    <connection from="-11176217#0" to="43990411#19" fromLane="0" toLane="0"/>
    <connection from="-11176217#0" to="-43990411#18" fromLane="0" toLane="1"/>
    <connection from="-11176217#0" to="11176217#0" fromLane="0" toLane="0"/>

    <connection from="-11176217#1" to="-11176217#0" fromLane="0" toLane="0"/>
    <connection from="-11176217#1" to="11176217#1" fromLane="0" toLane="0"/>

    <connection from="-11176217#2" to="-11176217#1" fromLane="0" toLane="0"/>
    <connection from="-11176217#2" to="11176217#2" fromLane="0" toLane="0"/>

    <connection from="-11176217#3" to="-11176217#2" fromLane="0" toLane="0"/>
    <connection from="-11176217#3" to="11176217#3" fromLane="0" toLane="0"/>

    <connection from="-11176217#4" to="-11176217#3" fromLane="0" toLane="0"/>
    <connection from="-11176217#4" to="11176217#4" fromLane="0" toLane="0"/>

    <connection from="-11176217#5" to="-11176217#4" fromLane="0" toLane="0"/>
    <connection from="-11176217#5" to="11176217#5" fromLane="0" toLane="0"/>

    <connection from="-11176282" to="157704341" fromLane="0" toLane="0"/>
    <connection from="-11176282" to="-214485749#4" fromLane="0" toLane="0"/>
    <connection from="-11176282" to="11176282" fromLane="0" toLane="0"/>

    <connection from="-11176376#0" to="127588506#1" fromLane="0" toLane="0"/>
    <connection from="-11176376#0" to="11176376#0" fromLane="0" toLane="0"/>

    <connection from="-11176376#1" to="-11176376#0" fromLane="0" toLane="0"/>
    <connection from="-11176376#1" to="-11189221" fromLane="0" toLane="0"/>
    <connection from="-11176376#1" to="11176376#1" fromLane="0" toLane="0"/>

    <connection from="-11176415#0" to="49846076#15" fromLane="0" toLane="0"/>
    <connection from="-11176415#0" to="-49846076#14" fromLane="0" toLane="0"/>
    <connection from="-11176415#0" to="11176415#0" fromLane="0" toLane="0"/>

    <connection from="-11176415#1" to="215885158#1" fromLane="0" toLane="0"/>
    <connection from="-11176415#1" to="-11176415#0" fromLane="0" toLane="0"/>
    <connection from="-11176415#1" to="-215885158#0" fromLane="0" toLane="0"/>
    <connection from="-11176415#1" to="11176415#1" fromLane="0" toLane="0"/>

    <connection from="-11176424#0" to="49845392#2" fromLane="0" toLane="0"/>
    <connection from="-11176424#0" to="11176424#0" fromLane="0" toLane="0"/>

    <connection from="-11176424#1" to="-11176424#0" fromLane="0" toLane="0"/>
    <connection from="-11176424#1" to="11176424#1" fromLane="0" toLane="0"/>

    <connection from="-11176618" to="11176618" fromLane="0" toLane="0"/>

    <connection from="-11176828#0" to="-49846075#4" fromLane="0" toLane="0"/>
    <connection from="-11176828#0" to="11183457" fromLane="0" toLane="0"/>
    <connection from="-11176828#0" to="127588483#0" fromLane="0" toLane="0"/>
    <connection from="-11176828#0" to="11176828#0" fromLane="0" toLane="0"/>

    <connection from="-11176828#1" to="-11176828#0" fromLane="0" toLane="0"/>
    <connection from="-11176828#1" to="11176828#1" fromLane="0" toLane="0"/>

    <connection from="-11177064#0" to="11182469#1" fromLane="0" toLane="0"/>
    <connection from="-11177064#0" to="-11182469#0" fromLane="0" toLane="0"/>
    <connection from="-11177064#0" to="11177064#0" fromLane="0" toLane="0"/>

    <connection from="-11177064#1" to="-73540489" fromLane="0" toLane="0"/>
    <connection from="-11177064#1" to="-11177064#0" fromLane="0" toLane="0"/>
    <connection from="-11177064#1" to="157849121#0" fromLane="0" toLane="0"/>
    <connection from="-11177064#1" to="11177064#1" fromLane="0" toLane="0"/>

    <connection from="-11177066" to="-213546031#0" fromLane="0" toLane="0"/>
    <connection from="-11177066" to="213546031#1" fromLane="0" toLane="0"/>
    <connection from="-11177066" to="11177066" fromLane="0" toLane="0"/>

    <connection from="-11177184" to="-157848653#1" fromLane="0" toLane="0"/>
    <connection from="-11177184" to="157848652" fromLane="0" toLane="0"/>
    <connection from="-11177184" to="11177184" fromLane="0" toLane="0"/>

    <connection from="-11177185" to="-157849410#1" fromLane="0" toLane="0"/>
    <connection from="-11177185" to="157849410#2" fromLane="0" toLane="0"/>
    <connection from="-11177185" to="11177185" fromLane="0" toLane="0"/>

    <connection from="-11177209#0" to="-215795035#8" fromLane="0" toLane="0"/>
    <connection from="-11177209#0" to="-11193486#2" fromLane="0" toLane="0"/>
    <connection from="-11177209#0" to="215795035#9" fromLane="0" toLane="0"/>
    <connection from="-11177209#0" to="11177209#0" fromLane="0" toLane="0"/>

    <connection from="-11177209#1" to="-11177209#0" fromLane="0" toLane="0"/>
    <connection from="-11177209#1" to="11177209#1" fromLane="0" toLane="0"/>

    <connection from="-11177209#2" to="-11177209#1" fromLane="0" toLane="0"/>
    <connection from="-11177209#2" to="11191887" fromLane="0" toLane="0"/>
    <connection from="-11177209#2" to="11177209#2" fromLane="0" toLane="0"/>

    <connection from="-11177209#3" to="-210737493" fromLane="0" toLane="0"/>
    <connection from="-11177209#3" to="-11177209#2" fromLane="0" toLane="0"/>
    <connection from="-11177209#3" to="11177209#3" fromLane="0" toLane="0"/>

    <connection from="-11177209#5" to="-210737542" fromLane="0" toLane="0"/>
    <connection from="-11177209#5" to="-11177209#3" fromLane="0" toLane="0"/>
    <connection from="-11177209#5" to="11203569" fromLane="0" toLane="0"/>
    <connection from="-11177209#5" to="11177209#5" fromLane="0" toLane="0"/>

    <connection from="-11177211" to="-157848653#0" fromLane="0" toLane="0"/>
    <connection from="-11177211" to="157848653#1" fromLane="0" toLane="0"/>
    <connection from="-11177211" to="11177211" fromLane="0" toLane="0"/>

    <connection from="-11177266" to="-43678399#2" fromLane="0" toLane="0"/>
    <connection from="-11177266" to="11187677" fromLane="0" toLane="0"/>
    <connection from="-11177266" to="43678399#4" fromLane="0" toLane="1"/>
    <connection from="-11177266" to="11177266" fromLane="0" toLane="0"/>

    <connection from="-11177371" to="-156321747#1" fromLane="0" toLane="0"/>
    <connection from="-11177371" to="210166770" fromLane="0" toLane="0"/>
    <connection from="-11177371" to="11177371" fromLane="0" toLane="0"/>

    <connection from="-11177374" to="-83668704#0" fromLane="0" toLane="0"/>
    <connection from="-11177374" to="83668704#1" fromLane="0" toLane="0"/>
    <connection from="-11177374" to="11177374" fromLane="0" toLane="0"/>

    <connection from="-11177382#0" to="-210242866" fromLane="0" toLane="0"/>
    <connection from="-11177382#0" to="11177382#0" fromLane="0" toLane="0"/>

    <connection from="-11177382#1" to="-213657192" fromLane="0" toLane="0"/>
    <connection from="-11177382#1" to="-11177382#0" fromLane="0" toLane="0"/>
    <connection from="-11177382#1" to="11177382#1" fromLane="0" toLane="0"/>

    <connection from="-11177382#2" to="-11177382#1" fromLane="0" toLane="0"/>
    <connection from="-11177382#2" to="11177382#2" fromLane="0" toLane="0"/>

    <connection from="-11177382#3" to="135796743#3" fromLane="0" toLane="0"/>
    <connection from="-11177382#3" to="-11177382#2" fromLane="0" toLane="0"/>
    <connection from="-11177382#3" to="-135796743#2" fromLane="0" toLane="1"/>
    <connection from="-11177382#3" to="11177382#3" fromLane="0" toLane="0"/>

    <connection from="-11177382#4" to="-11177382#3" fromLane="0" toLane="0"/>
    <connection from="-11177382#4" to="11180912" fromLane="0" toLane="0"/>
    <connection from="-11177382#4" to="11177382#4" fromLane="0" toLane="0"/>

    <connection from="-11177387#0" to="-208146418" fromLane="0" toLane="0"/>
    <connection from="-11177387#0" to="-208146231" fromLane="0" toLane="0"/>
    <connection from="-11177387#0" to="11177387#0" fromLane="0" toLane="0"/>

    <connection from="-11177387#1" to="-11177387#0" fromLane="0" toLane="0"/>
    <connection from="-11177387#1" to="215591420#0" fromLane="0" toLane="0"/>
    <connection from="-11177387#1" to="11177387#1" fromLane="0" toLane="0"/>

    <connection from="-11177710" to="11177710" fromLane="0" toLane="0"/>

    <connection from="-11177891" to="127588545#3" fromLane="0" toLane="0"/>
    <connection from="-11177891" to="-127588545#2" fromLane="0" toLane="0"/>
    <connection from="-11177891" to="11177891" fromLane="0" toLane="0"/>

    <connection from="-11177893" to="73531032#2" fromLane="0" toLane="0"/>
    <connection from="-11177893" to="-73531032#1" fromLane="0" toLane="1"/>
    <connection from="-11177893" to="11177893" fromLane="0" toLane="0"/>

    <connection from="-11177921" to="-11201725#1" fromLane="0" toLane="0"/>
    <connection from="-11177921" to="11201725#2" fromLane="0" toLane="0"/>
    <connection from="-11177921" to="11177921" fromLane="0" toLane="0"/>

    <connection from="-11177970#0" to="73538102#0" fromLane="0" toLane="0"/>
    <connection from="-11177970#0" to="73538121#0" fromLane="0" toLane="0"/>
    <connection from="-11177970#0" to="-73538109#1" fromLane="0" toLane="0"/>
    <connection from="-11177970#0" to="11177970#0" fromLane="0" toLane="0"/>

    <connection from="-11177970#1" to="67567288#0" fromLane="0" toLane="0"/>
    <connection from="-11177970#1" to="-11177970#0" fromLane="0" toLane="0"/>
    <connection from="-11177970#1" to="11177970#1" fromLane="0" toLane="0"/>

    <connection from="-11177970#2" to="-11177970#1" fromLane="0" toLane="0"/>
    <connection from="-11177970#2" to="11177970#2" fromLane="0" toLane="0"/>

    <connection from="-11177996" to="-11182003#0" fromLane="0" toLane="0"/>
    <connection from="-11177996" to="11182003#1" fromLane="0" toLane="0"/>
    <connection from="-11177996" to="11177996" fromLane="0" toLane="0"/>

    <connection from="-11177999" to="11192866" fromLane="0" toLane="0"/>
    <connection from="-11177999" to="-11205419" fromLane="0" toLane="0"/>
    <connection from="-11177999" to="11177999" fromLane="0" toLane="0"/>

    <connection from="-11178001#0" to="11182514#0" fromLane="0" toLane="0"/>
    <connection from="-11178001#0" to="11178001#0" fromLane="0" toLane="0"/>

    <connection from="-11178001#1" to="11183808#0" fromLane="0" toLane="0"/>
    <connection from="-11178001#1" to="-11178001#0" fromLane="0" toLane="0"/>
    <connection from="-11178001#1" to="11178001#1" fromLane="0" toLane="0"/>

    <connection from="-11178001#2" to="-11178001#1" fromLane="0" toLane="0"/>
    <connection from="-11178001#2" to="11178001#2" fromLane="0" toLane="0"/>

    <connection from="-11178001#3" to="-11178001#2" fromLane="0" toLane="0"/>
    <connection from="-11178001#3" to="11178001#3" fromLane="0" toLane="0"/>

    <connection from="-11178001#4" to="-11178001#3" fromLane="0" toLane="0"/>
    <connection from="-11178001#4" to="11178001#4" fromLane="0" toLane="0"/>

    <connection from="-11178001#5" to="-11178001#4" fromLane="0" toLane="0"/>
    <connection from="-11178001#5" to="11178001#5" fromLane="0" toLane="0"/>

    <connection from="-11178001#6" to="-11178001#5" fromLane="0" toLane="0"/>
    <connection from="-11178001#6" to="11193834" fromLane="0" toLane="0"/>
    <connection from="-11178001#6" to="11178001#6" fromLane="0" toLane="0"/>

    <connection from="-11178001#7" to="210326283" fromLane="0" toLane="0"/>
    <connection from="-11178001#7" to="-11178001#6" fromLane="0" toLane="0"/>
    <connection from="-11178001#7" to="11178001#7" fromLane="0" toLane="0"/>

    <connection from="-11178045" to="11178045" fromLane="0" toLane="0"/>

    <connection from="-11178104" to="155955199#1" fromLane="0" toLane="0"/>
    <connection from="-11178104" to="-155955199#0" fromLane="0" toLane="0"/>
    <connection from="-11178104" to="11178104" fromLane="0" toLane="0"/>

    <connection from="-11178464#0" to="81229247#0" fromLane="0" toLane="0"/>
    <connection from="-11178464#0" to="49847844#0" fromLane="0" toLane="0"/>
    <connection from="-11178464#0" to="79288782#0" fromLane="0" toLane="0"/>
    <connection from="-11178464#0" to="11178464#0" fromLane="0" toLane="0"/>

    <connection from="-11178464#1" to="156192269#0" fromLane="0" toLane="0"/>
    <connection from="-11178464#1" to="-11178464#0" fromLane="0" toLane="0"/>
    <connection from="-11178464#1" to="-210166812" fromLane="0" toLane="0"/>
    <connection from="-11178464#1" to="11178464#1" fromLane="0" toLane="0"/>

    <connection from="-11178488#0" to="-73540478#3" fromLane="0" toLane="0"/>
    <connection from="-11178488#0" to="-157849898#3" fromLane="0" toLane="0"/>
    <connection from="-11178488#0" to="155955220#0" fromLane="0" toLane="0"/>
    <connection from="-11178488#0" to="11178488#0" fromLane="0" toLane="0"/>

    <connection from="-11178488#1" to="-11178488#0" fromLane="0" toLane="0"/>
    <connection from="-11178488#1" to="11178488#1" fromLane="0" toLane="0"/>

    <connection from="-11178577" to="-80778217#5" fromLane="0" toLane="0"/>
    <connection from="-11178577" to="80778217#6" fromLane="0" toLane="1"/>
    <connection from="-11178577" to="11178577" fromLane="0" toLane="0"/>

    <connection from="-11178755#0" to="-11176618" fromLane="0" toLane="0"/>
    <connection from="-11178755#0" to="11178755#0" fromLane="0" toLane="0"/>

    <connection from="-11178755#1" to="-11178755#0" fromLane="0" toLane="0"/>
    <connection from="-11178755#1" to="11178755#1" fromLane="0" toLane="0"/>

    <connection from="-11178843" to="-216584582#14" fromLane="0" toLane="0"/>
    <connection from="-11178843" to="216584582#15" fromLane="0" toLane="1"/>
    <connection from="-11178843" to="11178843" fromLane="0" toLane="0"/>

    <connection from="-11178932" to="11178932" fromLane="0" toLane="0"/>

    <connection from="-11178934" to="210709302#1" fromLane="0" toLane="0"/>
    <connection from="-11178934" to="-210709302#0" fromLane="0" toLane="0"/>
    <connection from="-11178934" to="11178934" fromLane="0" toLane="0"/>

    <connection from="-11178957" to="11197511#3" fromLane="0" toLane="0"/>
    <connection from="-11178957" to="-11197511#2" fromLane="0" toLane="0"/>
    <connection from="-11178957" to="11178957" fromLane="0" toLane="0"/>

    <connection from="-11178970" to="216584582#5" fromLane="0" toLane="0"/>
    <connection from="-11178970" to="-216584582#4" fromLane="0" toLane="1"/>
    <connection from="-11178970" to="11178970" fromLane="0" toLane="0"/>

    <connection from="-11179409#0" to="75259994#0" fromLane="0" toLane="0"/>
    <connection from="-11179409#0" to="11179409#0" fromLane="0" toLane="0"/>

    <connection from="-11179409#1" to="-11179409#0" fromLane="0" toLane="0"/>
    <connection from="-11179409#1" to="11179409#1" fromLane="0" toLane="0"/>

    <connection from="-11179409#2" to="-11179409#1" fromLane="0" toLane="0"/>
    <connection from="-11179409#2" to="11179409#2" fromLane="0" toLane="0"/>

    <connection from="-11179409#3" to="-11179409#2" fromLane="0" toLane="0"/>
    <connection from="-11179409#3" to="11179409#3" fromLane="0" toLane="0"/>

    <connection from="-11179409#4" to="-11179409#3" fromLane="0" toLane="0"/>
    <connection from="-11179409#4" to="11179409#4" fromLane="0" toLane="0"/>

    <connection from="-11179409#5" to="215671208#0" fromLane="0" toLane="0"/>
    <connection from="-11179409#5" to="-11179409#4" fromLane="0" toLane="0"/>
    <connection from="-11179409#5" to="-11193647#10" fromLane="0" toLane="1"/>
    <connection from="-11179409#5" to="11179409#5" fromLane="0" toLane="0"/>

    <connection from="-11179409#6" to="-11179409#5" fromLane="0" toLane="0"/>
    <connection from="-11179409#6" to="11179409#6" fromLane="0" toLane="0"/>

    <connection from="-11179409#7" to="-11179409#6" fromLane="0" toLane="0"/>
    <connection from="-11179409#7" to="11179409#7" fromLane="0" toLane="0"/>

    <connection from="-11179409#8" to="-11179409#7" fromLane="0" toLane="0"/>
    <connection from="-11179409#8" to="11179409#8" fromLane="0" toLane="0"/>

    <connection from="-11179409#9" to="-11179409#8" fromLane="0" toLane="0"/>
    <connection from="-11179409#9" to="11179409#9" fromLane="0" toLane="0"/>

    <connection from="-11179423" to="210828059#1" fromLane="0" toLane="0"/>
    <connection from="-11179423" to="-210828059#0" fromLane="0" toLane="0"/>
    <connection from="-11179423" to="11179423" fromLane="0" toLane="0"/>

    <connection from="-11179430" to="73532101#1" fromLane="0" toLane="0"/>
    <connection from="-11179430" to="-73532101#0" fromLane="0" toLane="0"/>
    <connection from="-11179430" to="11179430" fromLane="0" toLane="0"/>

    <connection from="-11179432" to="155955202#1" fromLane="0" toLane="0"/>
    <connection from="-11179432" to="-157849406" fromLane="0" toLane="0"/>
    <connection from="-11179432" to="-11183509" fromLane="0" toLane="0"/>
    <connection from="-11179432" to="11179432" fromLane="0" toLane="0"/>

    <connection from="-11179466" to="-80890308#3" fromLane="0" toLane="0"/>
    <connection from="-11179466" to="80890308#4" fromLane="0" toLane="1"/>
    <connection from="-11179466" to="11179466" fromLane="0" toLane="0"/>

    <connection from="-11179494" to="215958383#2" fromLane="0" toLane="0"/>
    <connection from="-11179494" to="-215958383#1" fromLane="0" toLane="1"/>
    <connection from="-11179494" to="11179494" fromLane="0" toLane="0"/>

    <connection from="-11179545" to="215795051#6" fromLane="0" toLane="0"/>
    <connection from="-11179545" to="-215795051#5" fromLane="0" toLane="0"/>
    <connection from="-11179545" to="11179545" fromLane="0" toLane="0"/>

    <connection from="-11179884#0" to="213546040#2" fromLane="0" toLane="0"/>
    <connection from="-11179884#0" to="-213546040#1" fromLane="0" toLane="0"/>
    <connection from="-11179884#0" to="11179884#0" fromLane="0" toLane="0"/>

    <connection from="-11179884#1" to="157965421" fromLane="0" toLane="0"/>
    <connection from="-11179884#1" to="-11179884#0" fromLane="0" toLane="0"/>
    <connection from="-11179884#1" to="-210827821" fromLane="0" toLane="0"/>
    <connection from="-11179884#1" to="11179884#1" fromLane="0" toLane="0"/>

    <connection from="-11179884#2" to="11183069" fromLane="0" toLane="0"/>
    <connection from="-11179884#2" to="-11179884#1" fromLane="0" toLane="0"/>
    <connection from="-11179884#2" to="11179884#2" fromLane="0" toLane="0"/>

    <connection from="-11179884#3" to="-11179884#2" fromLane="0" toLane="0"/>
    <connection from="-11179884#3" to="-11203534" fromLane="0" toLane="0"/>
    <connection from="-11179884#3" to="11179884#3" fromLane="0" toLane="0"/>

    <connection from="-11179886" to="73540472#0" fromLane="0" toLane="0"/>
    <connection from="-11179886" to="-210827863" fromLane="0" toLane="0"/>
    <connection from="-11179886" to="-73540499#1" fromLane="0" toLane="0"/>
    <connection from="-11179886" to="11179886" fromLane="0" toLane="0"/>

    <connection from="-11179939#0" to="-213546019#0" fromLane="0" toLane="0"/>
    <connection from="-11179939#0" to="213546019#1" fromLane="0" toLane="0"/>
    <connection from="-11179939#0" to="11179939#0" fromLane="0" toLane="0"/>

    <connection from="-11179939#1" to="-215795058#0" fromLane="0" toLane="0"/>
    <connection from="-11179939#1" to="-11179939#0" fromLane="0" toLane="0"/>
    <connection from="-11179939#1" to="215795058#1" fromLane="0" toLane="0"/>
    <connection from="-11179939#1" to="11179939#1" fromLane="0" toLane="0"/>

    <connection from="-11180130#0" to="155955217" fromLane="0" toLane="0"/>
    <connection from="-11180130#0" to="11180130#0" fromLane="0" toLane="0"/>

    <connection from="-11180130#2" to="601418145" fromLane="0" toLane="0"/>
    <connection from="-11180130#2" to="-11180130#0" fromLane="0" toLane="0"/>
    <connection from="-11180130#2" to="11180130#2" fromLane="0" toLane="0"/>

    <connection from="-11180285#0" to="80664415#2" fromLane="0" toLane="0"/>
    <connection from="-11180285#0" to="44035020#0" fromLane="0" toLane="0"/>
    <connection from="-11180285#0" to="11180285#0" fromLane="0" toLane="0"/>

    <connection from="-11180285#1" to="-11180285#0" fromLane="0" toLane="0"/>
    <connection from="-11180285#1" to="11180285#1" fromLane="0" toLane="0"/>

    <connection from="-11180285#2" to="-11180285#1" fromLane="0" toLane="0"/>
    <connection from="-11180285#2" to="11180285#2" fromLane="0" toLane="0"/>

    <connection from="-11180285#3" to="-11180285#2" fromLane="0" toLane="0"/>
    <connection from="-11180285#3" to="11194590" fromLane="0" toLane="0"/>
    <connection from="-11180285#3" to="11180285#3" fromLane="0" toLane="0"/>

    <connection from="-11180285#5" to="43990457#0" fromLane="0" toLane="0"/>
    <connection from="-11180285#5" to="-11180285#3" fromLane="0" toLane="0"/>
    <connection from="-11180285#5" to="-11189528#1" fromLane="0" toLane="0"/>
    <connection from="-11180285#5" to="11180285#5" fromLane="0" toLane="0"/>

    <connection from="-11180285#6" to="-73538119#2" fromLane="0" toLane="0"/>
    <connection from="-11180285#6" to="-11180285#5" fromLane="0" toLane="0"/>
    <connection from="-11180285#6" to="73538119#3" fromLane="0" toLane="0"/>
    <connection from="-11180285#6" to="11180285#6" fromLane="0" toLane="0"/>

    <connection from="-11180335#0" to="43678399#8" fromLane="0" toLane="0"/>
    <connection from="-11180335#0" to="-43678399#7" fromLane="0" toLane="1"/>
    <connection from="-11180335#0" to="11180335#0" fromLane="0" toLane="0"/>

    <connection from="-11180335#1" to="-11180335#0" fromLane="0" toLane="0"/>
    <connection from="-11180335#1" to="11180335#1" fromLane="0" toLane="0"/>

    <connection from="-11180335#2" to="-11180335#1" fromLane="0" toLane="0"/>
    <connection from="-11180335#2" to="11180335#2" fromLane="0" toLane="0"/>

    <connection from="-11180403" to="43678497#2" fromLane="0" toLane="0"/>
    <connection from="-11180403" to="-43678497#1" fromLane="0" toLane="1"/>
    <connection from="-11180403" to="11180403" fromLane="0" toLane="0"/>

    <connection from="-11180468" to="11188947#8" fromLane="0" toLane="0"/>
    <connection from="-11180468" to="11180468" fromLane="0" toLane="0"/>

    <connection from="-11180659" to="-213546031#1" fromLane="0" toLane="0"/>
    <connection from="-11180659" to="127588491#0" fromLane="0" toLane="0"/>
    <connection from="-11180659" to="11180659" fromLane="0" toLane="0"/>

    <connection from="-11180735" to="-73540502#2" fromLane="0" toLane="0"/>
    <connection from="-11180735" to="73540502#3" fromLane="0" toLane="0"/>
    <connection from="-11180735" to="11180735" fromLane="0" toLane="0"/>

    <connection from="-11180808#0" to="210272746#2" fromLane="0" toLane="0"/>
    <connection from="-11180808#0" to="-210272746#1" fromLane="0" toLane="0"/>
    <connection from="-11180808#0" to="11180808#0" fromLane="0" toLane="0"/>

    <connection from="-11180808#1" to="11200532#2" fromLane="0" toLane="0"/>
    <connection from="-11180808#1" to="-11180808#0" fromLane="0" toLane="0"/>
    <connection from="-11180808#1" to="-11200532#1" fromLane="0" toLane="0"/>
    <connection from="-11180808#1" to="11180808#1" fromLane="0" toLane="0"/>

    <connection from="-11180909" to="11180909" fromLane="0" toLane="0"/>

    <connection from="-11180912" to="11177382#4" fromLane="0" toLane="0"/>
    <connection from="-11180912" to="-11177382#3" fromLane="0" toLane="0"/>
    <connection from="-11180912" to="11180912" fromLane="0" toLane="0"/>

    <connection from="-11181062" to="-157610624#4" fromLane="0" toLane="0"/>
    <connection from="-11181062" to="157610624#5" fromLane="0" toLane="0"/>
    <connection from="-11181062" to="11181062" fromLane="0" toLane="0"/>

    <connection from="-11181171#0" to="73974997#1" fromLane="0" toLane="0"/>
    <connection from="-11181171#0" to="-73974997#0" fromLane="0" toLane="0"/>
    <connection from="-11181171#0" to="11181171#0" fromLane="0" toLane="0"/>

    <connection from="-11181171#1" to="11185873#1" fromLane="0" toLane="0"/>
    <connection from="-11181171#1" to="-11181171#0" fromLane="0" toLane="0"/>
    <connection from="-11181171#1" to="-11185873#0" fromLane="0" toLane="0"/>
    <connection from="-11181171#1" to="11181171#1" fromLane="0" toLane="0"/>

    <connection from="-11181275" to="-67472165#1" fromLane="0" toLane="0"/>