<?xml version="1.0" encoding="UTF-8"?>

<!-- generated on 08/20/19 10:13:35 by Eclipse SUMO netedit Version v1_0_1+0383-8ba62d898b
<configuration xmlns:xsi="http://www.w3.org/2001/XMLSchema-instance" xsi:noNamespaceSchemaLocation="http://sumo.dlr.de/xsd/netconvertConfiguration.xsd">

    <input>
        <sumo-net-file value="C:\demand-supply-model\papers\sumo2grid\orlando-seg1\orlando-seg1.net.xml"/>
    </input>

    <output>
        <output-file value="C:\demand-supply-model\papers\sumo2grid\orlando-seg1\orlando-seg1.net.xml"/>
        <plain-output-prefix value="C:\demand-supply-model\papers\sumo2grid\orlando-seg1\orlando-seg1"/>
        <output.street-names value="true"/>
    </output>

    <processing>
        <offset.disable-normalization value="true"/>
        <lefthand value="false"/>
    </processing>

    <junctions>
        <no-turnarounds value="true"/>
        <junctions.corner-detail value="5"/>
        <junctions.limit-turn-speed value="5.5"/>
        <rectangular-lane-cut value="false"/>
    </junctions>

    <pedestrian>
        <walkingareas value="false"/>
    </pedestrian>

    <visualisation>
        <registry-viewport value="true"/>
    </visualisation>

</configuration>
-->

<nodes version="1.0" xmlns:xsi="http://www.w3.org/2001/XMLSchema-instance" xsi:noNamespaceSchemaLocation="http://sumo.dlr.de/xsd/nodes_file.xsd">
    <location netOffset="-459925.58,-3153967.27" convBoundary="388.12,297.52,5210.76,5777.46" origBoundary="-81.409810,28.511834,-81.350098,28.571162" projParameter="+proj=utm +zone=17 +ellps=WGS84 +datum=WGS84 +units=m +no_defs"/>

    <node id="1201200159" x="4837.78" y="3815.45" type="priority"/>
    <node id="1201200164" x="4838.00" y="3707.32" type="priority"/>
    <node id="1201200194" x="2981.90" y="4639.31" type="priority"/>
    <node id="1201200198" x="4831.26" y="4500.38" type="priority"/>
    <node id="1201200223" x="4829.45" y="4657.69" type="priority"/>
    <node id="1306186991" x="2691.81" y="2722.77" type="priority"/>
    <node id="1306190606" x="2674.96" y="3725.85" type="priority"/>
    <node id="1306190608" x="2652.45" y="3753.67" type="priority"/>
    <node id="1306190621" x="2645.96" y="3812.14" type="priority"/>
    <node id="1410630258" x="3241.06" y="2176.58" type="priority"/>
    <node id="1410630259" x="1148.63" y="2633.06" type="priority"/>
    <node id="1411748977" x="2434.89" y="582.87" type="priority"/>
    <node id="1411748979" x="2546.13" y="918.65" type="priority"/>
    <node id="1411748980" x="2707.45" y="918.34" type="priority"/>
    <node id="1411748981" x="2776.72" y="918.51" type="priority"/>
    <node id="1411748982" x="2486.55" y="919.65" type="priority"/>
    <node id="1411748983" x="2986.64" y="919.41" type="priority"/>
    <node id="1411748984" x="3090.56" y="921.73" type="priority"/>
    <node id="1411748985" x="2435.40" y="1035.86" type="priority"/>
    <node id="1411748986" x="2435.23" y="1273.56" type="priority"/>
    <node id="1411748990" x="4049.61" y="1467.68" type="priority"/>
    <node id="1411748991" x="2433.05" y="1486.48" type="priority"/>
    <node id="1411748992" x="2432.86" y="1499.60" type="priority"/>
    <node id="1411748993" x="2432.08" y="1597.24" type="priority"/>
    <node id="1411748994" x="4045.66" y="1875.86" type="priority"/>
    <node id="1411748996" x="2422.29" y="2395.00" type="priority"/>
    <node id="1411748997" x="1079.23" y="2634.96" type="priority"/>
    <node id="1411748998" x="970.25" y="2637.39" type="priority"/>
    <node id="1411748999" x="879.10" y="2638.29" type="priority"/>
    <node id="1411749000" x="856.61" y="2638.51" type="priority"/>
    <node id="1411749001" x="1115.87" y="2734.42" type="priority"/>
    <node id="1411749002" x="1057.85" y="2735.20" type="priority"/>
    <node id="1411749003" x="2160.06" y="2734.38" type="priority"/>
    <node id="1411749004" x="2314.04" y="2735.95" type="priority"/>
    <node id="1411749013" x="1993.95" y="2927.19" type="priority"/>
    <node id="1411749015" x="821.31" y="2940.66" type="priority"/>
    <node id="1411749017" x="4771.21" y="3421.82" type="priority"/>
    <node id="1411749018" x="2258.97" y="3544.65" type="priority"/>
    <node id="1411749019" x="1893.80" y="3750.70" type="priority"/>
    <node id="1411749021" x="4887.21" y="3957.66" type="priority"/>
    <node id="1411749022" x="4902.94" y="3957.78" type="priority"/>
    <node id="1411916007" x="1994.76" y="613.28" type="priority"/>
    <node id="1411916009" x="2006.04" y="613.33" type="priority"/>
    <node id="1411916013" x="4995.36" y="1097.17" type="priority"/>
    <node id="1411916015" x="4868.83" y="1485.40" type="priority"/>
    <node id="1411916020" x="4785.27" y="1565.71" type="priority"/>
    <node id="1411916021" x="2700.20" y="1771.07" type="priority"/>
    <node id="1411916022" x="2506.85" y="1773.87" type="priority"/>
    <node id="1411916025" x="2594.24" y="1774.57" type="priority"/>
    <node id="1411916029" x="3244.85" y="3434.63" type="priority"/>
    <node id="1411916030" x="3067.07" y="3443.20" type="priority"/>
    <node id="1411916031" x="3067.11" y="3491.61" type="priority"/>
    <node id="1411916034" x="4825.26" y="5012.28" type="priority"/>
    <node id="1411916035" x="4824.77" y="5049.49" type="priority"/>
    <node id="1411916037" x="2859.88" y="5082.30" type="priority"/>
    <node id="1411916038" x="4681.77" y="5469.49" type="priority"/>
    <node id="1411916039" x="4132.39" y="5473.59" type="priority"/>
    <node id="1411916041" x="4277.33" y="5472.28" type="priority"/>
    <node id="1411916042" x="4407.02" y="5471.02" type="priority"/>
    <node id="1411916044" x="4818.64" y="5736.84" type="priority"/>
    <node id="1422662277" x="1073.26" y="4554.02" type="priority"/>
    <node id="1423709865" x="1375.41" y="4947.05" type="priority"/>
    <node id="147045060#1-AddedOnRampNode" x="2505.43" y="2484.03" type="priority"/>
    <node id="147779002-AddedOffRampNode" x="4375.12" y="2814.72" type="priority"/>
    <node id="147779027-AddedOffRampNode" x="3960.64" y="2781.45" type="priority"/>
    <node id="1609672604" x="4060.64" y="2783.36" type="priority"/>
    <node id="1609672606" x="3398.49" y="2777.59" type="priority"/>
    <node id="1609672627" x="3612.18" y="2783.46" type="priority"/>
    <node id="1609672634" x="4009.27" y="2783.05" type="priority"/>
    <node id="1609672636" x="3395.74" y="2785.37" type="priority"/>
    <node id="1609672657" x="4409.97" y="2788.82" type="priority"/>
    <node id="1609672686" x="4472.14" y="2795.55" type="priority"/>
    <node id="1609672688" x="3479.31" y="2795.86" type="priority"/>
    <node id="1609672726" x="4009.75" y="2810.12" type="priority"/>
    <node id="1609672728" x="4060.69" y="2811.07" type="priority"/>
    <node id="1609672732" x="4407.92" y="2817.02" type="priority"/>
    <node id="1609672758" x="4470.09" y="2823.37" type="priority"/>
    <node id="1617154516" x="4439.34" y="2893.20" type="right_before_left"/>
    <node id="1624708222" x="1462.87" y="5017.79" type="priority"/>
    <node id="1629213911" x="1927.99" y="5472.39" type="priority"/>
    <node id="1629213913" x="1966.83" y="5472.48" type="priority"/>
    <node id="1632049683" x="1163.77" y="5248.37" type="priority"/>
    <node id="1632049691" x="1179.95" y="5256.72" type="priority"/>
    <node id="1632049709" x="1152.78" y="5276.39" type="priority"/>
    <node id="1632049713" x="1167.65" y="5284.57" type="priority"/>
    <node id="1638512120" x="1394.93" y="5026.18" type="priority"/>
    <node id="1638512129" x="1380.06" y="5080.62" type="priority"/>
    <node id="1638697427" x="887.39" y="4599.05" type="priority">
        <param key="buffer_stop" value="true"/>
    </node>
    <node id="1638697430" x="791.32" y="4603.69" type="priority">
        <param key="buffer_stop" value="true"/>
    </node>
    <node id="1638697433" x="697.65" y="4607.16" type="priority">
        <param key="buffer_stop" value="true"/>
    </node>
    <node id="1638697434" x="887.57" y="4609.77" type="priority"/>
    <node id="1638697437" x="791.72" y="4615.08" type="priority"/>
    <node id="1644945719" x="2486.97" y="5456.87" type="priority"/>
    <node id="1690130652" x="1355.00" y="5548.84" type="priority"/>
    <node id="1690130664" x="1381.70" y="5614.17" type="priority"/>
    <node id="1696128083" x="4396.35" y="5168.41" type="priority"/>
    <node id="1696128085" x="5069.73" y="5169.21" type="priority"/>
    <node id="1696128090" x="4770.12" y="5367.81" type="priority"/>
    <node id="1696128091" x="4754.71" y="5367.91" type="priority"/>
    <node id="1696128092" x="4380.61" y="5370.35" type="priority"/>
    <node id="1696128093" x="2456.21" y="5419.87" type="priority"/>
    <node id="1696128094" x="2540.60" y="5466.39" type="priority"/>
    <node id="1696128095" x="2455.17" y="5508.79" type="priority"/>
    <node id="1696128099" x="2453.20" y="5695.60" type="priority"/>
    <node id="1696128100" x="2505.39" y="5735.20" type="priority"/>
    <node id="1696237342" x="970.07" y="4439.93" type="priority"/>
    <node id="1696237344" x="792.88" y="4488.66" type="priority"/>
    <node id="1696237346" x="692.24" y="4500.24" type="priority"/>
    <node id="1696237348" x="792.63" y="4505.69" type="priority"/>
    <node id="1696237368" x="4999.56" y="4859.98" type="priority"/>
    <node id="1696940521" x="3391.25" y="824.10" type="priority"/>
    <node id="1696940634" x="3757.82" y="824.75" type="priority"/>
    <node id="1696940635" x="3860.53" y="826.01" type="priority"/>
    <node id="1696940637" x="3981.85" y="827.75" type="priority"/>
    <node id="1696940962" x="4501.54" y="1852.52" type="priority"/>
    <node id="1696940980" x="4235.48" y="1862.20" type="priority"/>
    <node id="1696940999" x="4471.58" y="1863.11" type="priority"/>
    <node id="1696941003" x="4255.58" y="1865.45" type="priority"/>
    <node id="1696941045" x="4241.10" y="2543.95" type="priority"/>
    <node id="1698591913" x="4377.87" y="4966.45" type="priority"/>
    <node id="1698591914" x="4172.68" y="4967.15" type="priority"/>
    <node id="1698591936" x="4379.23" y="5168.32" type="priority"/>
    <node id="1698591945" x="4379.92" y="5268.84" type="priority"/>
    <node id="1698591978" x="4381.30" y="5471.29" type="priority"/>
    <node id="1698885992" x="1768.16" y="4812.83" type="priority"/>
    <node id="1698886024" x="1767.99" y="4960.66" type="priority"/>
    <node id="1699607160" x="2179.95" y="5363.50" type="priority"/>
    <node id="1699607161" x="2371.36" y="5365.99" type="priority"/>
    <node id="1699607162" x="2402.54" y="5366.41" type="priority"/>
    <node id="1700027521" x="4050.69" y="1033.54" type="priority"/>
    <node id="1700922594" x="4064.28" y="771.10" type="priority"/>
    <node id="1700922709" x="2751.92" y="1326.62" type="priority">
        <param key="buffer_stop" value="true"/>
    </node>
    <node id="1700922774" x="746.92" y="1615.08" type="priority"/>
    <node id="1700922798" x="1542.09" y="1623.75" type="priority"/>
    <node id="1700922805" x="1611.67" y="1624.25" type="priority"/>
    <node id="1700922807" x="1668.71" y="1624.50" type="priority"/>
    <node id="1700922850" x="2074.76" y="1729.96" type="priority"/>
    <node id="1700922893" x="3836.59" y="1788.36" type="priority"/>
    <node id="1700922900" x="2826.00" y="1896.76" type="priority"/>
    <node id="1700922904" x="2825.21" y="1972.38" type="priority"/>
    <node id="1700922922" x="3599.00" y="2149.65" type="priority"/>
    <node id="1700922978" x="2174.62" y="2366.24" type="priority"/>
    <node id="1700923405" x="4690.87" y="3656.65" type="priority"/>
    <node id="1700923413" x="4758.26" y="3657.04" type="priority"/>
    <node id="1700923416" x="4767.55" y="3657.10" type="priority"/>
    <node id="1700923447" x="4782.91" y="3657.19" type="priority"/>
    <node id="1700923449" x="4885.18" y="3657.36" type="priority"/>
    <node id="1700923451" x="4865.53" y="3657.43" type="priority"/>
    <node id="1700923469" x="1385.97" y="3946.41" type="priority"/>
    <node id="1700923480" x="1414.03" y="3946.66" type="priority"/>
    <node id="1700923482" x="1898.41" y="3952.46" type="priority"/>
    <node id="1700923521" x="4019.08" y="4622.12" type="priority"/>
    <node id="1700923620" x="4021.73" y="4827.02" type="priority"/>
    <node id="1700923626" x="4021.99" y="4844.15" type="priority"/>
    <node id="1700923635" x="4023.22" y="4923.47" type="priority"/>
    <node id="1700923661" x="2980.15" y="4969.51" type="traffic_light" tl="1700923661"/>
    <node id="1700923664" x="2817.37" y="4969.21" type="priority"/>
    <node id="1700923674" x="4369.13" y="4966.46" type="priority"/>
    <node id="1700923676" x="3848.87" y="4968.81" type="priority"/>
    <node id="1700923718" x="1543.78" y="5499.85" type="priority"/>
    <node id="1700923784" x="1591.59" y="5631.96" type="priority"/>
    <node id="2041338725" x="1224.09" y="1733.18" type="priority"/>
    <node id="2041338762" x="1376.99" y="4573.40" type="priority"/>
    <node id="207671977#1-AddedOnRampNode" x="2750.89" y="5188.54" type="priority"/>
    <node id="212733450#1-AddedOffRampNode" x="2194.49" y="887.81" type="priority"/>
    <node id="212733468#1-AddedOnRampNode" x="1975.89" y="452.50" type="priority"/>
    <node id="2130265041" x="4437.41" y="3738.41" type="priority"/>
    <node id="2179291594" x="4360.64" y="5471.50" type="priority"/>
    <node id="2179291595" x="4313.82" y="5471.96" type="priority"/>
    <node id="2184672935" x="3771.85" y="725.89" type="priority"/>
    <node id="2184672938" x="3865.07" y="726.26" type="priority"/>
    <node id="2184672940" x="3823.44" y="778.00" type="priority"/>
    <node id="2184672941" x="4150.96" y="1609.48" type="priority"/>
    <node id="2184672943" x="3852.62" y="1828.52" type="priority"/>
    <node id="2184672986" x="3912.23" y="1829.35" type="priority"/>
    <node id="2184672989" x="3930.48" y="1829.61" type="priority"/>
    <node id="2184672992" x="3944.54" y="1829.81" type="priority"/>
    <node id="2184672995" x="3968.85" y="1830.15" type="priority"/>
    <node id="2184672999" x="4015.47" y="1830.50" type="priority"/>
    <node id="2184673001" x="3670.64" y="2203.14" type="priority"/>
    <node id="2185003586" x="4657.75" y="561.85" type="priority"/>
    <node id="2185145142" x="1452.45" y="2238.29" type="priority"/>
    <node id="2185145151" x="1554.31" y="2239.51" type="priority"/>
    <node id="2191923829" x="4997.22" y="1607.67" type="priority"/>
    <node id="2191923830" x="4906.45" y="1644.77" type="priority"/>
    <node id="2191923831" x="4970.98" y="1692.81" type="priority"/>
    <node id="2191923841" x="4523.10" y="2423.23" type="priority"/>
    <node id="2191923863" x="2199.71" y="4629.85" type="priority"/>
    <node id="2191923864" x="2221.23" y="4629.74" type="priority"/>
    <node id="2191923865" x="2328.23" y="4630.31" type="priority"/>
    <node id="2191923866" x="2353.34" y="4630.55" type="priority"/>
    <node id="2191985497" x="1196.83" y="4541.84" type="priority"/>
    <node id="2191985501" x="1374.10" y="4542.47" type="priority"/>
    <node id="2191985515" x="1601.59" y="4544.33" type="priority"/>
    <node id="2191985519" x="2603.11" y="4540.98" type="priority"/>
    <node id="2191985523" x="2019.54" y="4544.88" type="priority"/>
    <node id="2191985526" x="2006.12" y="4545.14" type="priority"/>
    <node id="2191985562" x="1188.81" y="4554.37" type="priority"/>
    <node id="2191985566" x="1205.32" y="4554.46" type="priority"/>
    <node id="2191985592" x="1386.86" y="4555.44" type="priority"/>
    <node id="2191985599" x="1361.70" y="4555.55" type="priority"/>
    <node id="2191985603" x="4830.97" y="4546.44" type="priority"/>
    <node id="2191985607" x="1593.74" y="4556.70" type="priority"/>
    <node id="2191985610" x="2161.80" y="4554.99" type="priority"/>
    <node id="2191985619" x="1609.00" y="4556.82" type="priority"/>
    <node id="2191985620" x="2145.29" y="4555.38" type="priority"/>
    <node id="2191985638" x="2024.19" y="4557.16" type="priority"/>
    <node id="2191985641" x="1996.78" y="4557.27" type="priority"/>
    <node id="2191985663" x="4599.27" y="4553.83" type="priority"/>
    <node id="2191985692" x="4425.08" y="4555.54" type="priority"/>
    <node id="2191985709" x="1196.16" y="4567.89" type="priority"/>
    <node id="2191985710" x="1601.37" y="4569.51" type="priority"/>
    <node id="2191985711" x="4018.85" y="4561.78" type="priority"/>
    <node id="2191985712" x="2154.33" y="4567.94" type="priority"/>
    <node id="2191985748" x="4819.19" y="4561.77" type="priority"/>
    <node id="2191985752" x="4841.55" y="4561.74" type="priority"/>
    <node id="2191985757" x="3522.48" y="4567.16" type="priority"/>
    <node id="2191985762" x="3505.36" y="4567.29" type="priority"/>
    <node id="2191985828" x="4606.73" y="4564.78" type="priority"/>
    <node id="2191985829" x="4589.81" y="4565.00" type="priority"/>
    <node id="2191985836" x="4435.79" y="4566.73" type="priority"/>
    <node id="2191985844" x="4413.87" y="4567.15" type="priority"/>
    <node id="2191985902" x="2592.12" y="4575.89" type="priority"/>
    <node id="2191985914" x="4027.03" y="4573.21" type="priority"/>
    <node id="2191985936" x="4010.69" y="4573.27" type="priority"/>
    <node id="2191985956" x="4599.21" y="4576.18" type="priority"/>
    <node id="2191985958" x="3513.75" y="4580.57" type="priority"/>
    <node id="2191985959" x="4830.70" y="4577.35" type="priority"/>
    <node id="2191985987" x="4425.24" y="4580.33" type="priority"/>
    <node id="2191986013" x="4018.81" y="4586.00" type="priority"/>
    <node id="2192060554" x="1219.20" y="314.25" type="priority"/>
    <node id="2192060555" x="1231.49" y="316.61" type="priority"/>
    <node id="2192060556" x="1229.26" y="900.81" type="priority"/>
    <node id="2192060557" x="1216.91" y="900.93" type="priority"/>
    <node id="2192060558" x="1211.43" y="908.52" type="priority"/>
    <node id="2192060559" x="1234.68" y="908.71" type="priority"/>
    <node id="2192060560" x="1216.82" y="917.05" type="priority"/>
    <node id="2192060561" x="1229.19" y="917.07" type="priority"/>
    <node id="2192060562" x="1229.88" y="1606.60" type="priority"/>
    <node id="2192060563" x="1216.97" y="1606.76" type="priority"/>
    <node id="2192060564" x="1210.86" y="1621.26" type="priority"/>
    <node id="2192060565" x="1237.47" y="1621.28" type="priority"/>
    <node id="2192060566" x="1229.88" y="1633.10" type="priority"/>
    <node id="2192060567" x="1217.11" y="1633.11" type="priority"/>
    <node id="2192060568" x="1221.31" y="2128.47" type="priority"/>
    <node id="2192060569" x="1209.48" y="2136.55" type="priority"/>
    <node id="2192060570" x="1232.26" y="2136.73" type="priority"/>
    <node id="2192060571" x="1218.49" y="2146.68" type="priority"/>
    <node id="2192060572" x="1223.30" y="2146.75" type="priority"/>
    <node id="2192060574" x="1200.60" y="2535.17" type="priority"/>
    <node id="2192060575" x="1200.33" y="2633.90" type="priority"/>
    <node id="2192060576" x="1232.21" y="2634.69" type="priority"/>
    <node id="2192060577" x="1209.78" y="2725.06" type="priority"/>
    <node id="2192060578" x="1221.94" y="2725.08" type="priority"/>
    <node id="2192060579" x="1204.40" y="2733.21" type="priority"/>
    <node id="2192060580" x="1226.68" y="2733.24" type="priority"/>
    <node id="2192060581" x="1221.82" y="2739.80" type="priority"/>
    <node id="2192060582" x="1209.71" y="2739.84" type="priority"/>
    <node id="2192060583" x="1214.02" y="2917.08" type="priority"/>
    <node id="2192060584" x="1202.59" y="2924.90" type="priority"/>
    <node id="2192060585" x="1225.02" y="2925.25" type="priority"/>
    <node id="2192060589" x="1213.77" y="2969.74" type="priority"/>
    <node id="2192060590" x="1212.39" y="3127.41" type="priority"/>
    <node id="2192060591" x="1225.30" y="3136.86" type="priority"/>
    <node id="2192060592" x="1200.07" y="3137.40" type="priority"/>
    <node id="2192060593" x="1212.07" y="3147.81" type="priority"/>
    <node id="2192060594" x="1210.59" y="3330.63" type="priority"/>
    <node id="2192060595" x="1223.15" y="3340.36" type="priority"/>
    <node id="2192060596" x="1198.56" y="3340.54" type="priority"/>
    <node id="2192060597" x="1210.46" y="3351.24" type="priority"/>
    <node id="2192060598" x="1208.72" y="3535.97" type="priority"/>
    <node id="2192060599" x="1193.23" y="3547.24" type="priority"/>
    <node id="2192060600" x="1221.93" y="3547.65" type="priority"/>
    <node id="2192060601" x="1208.52" y="3560.92" type="priority"/>
    <node id="2192060602" x="1206.74" y="3739.62" type="priority"/>
    <node id="2192060603" x="1218.34" y="3749.72" type="priority"/>
    <node id="2192060606" x="1206.52" y="3759.05" type="priority"/>
    <node id="2192060607" x="1202.26" y="4141.67" type="priority"/>
    <node id="2192060608" x="1215.34" y="4152.13" type="priority"/>
    <node id="2192060611" x="1202.12" y="4161.20" type="priority"/>
    <node id="2192060612" x="1228.04" y="5309.73" type="priority"/>
    <node id="2192220144" x="4440.47" y="2739.96" type="priority"/>
    <node id="2192220146" x="4427.49" y="2749.57" type="priority"/>
    <node id="2192220149" x="4438.54" y="2761.58" type="priority"/>
    <node id="2192220151" x="4445.03" y="2761.95" type="priority"/>
    <node id="2192220152" x="4423.05" y="2947.94" type="priority"/>
    <node id="2192220155" x="4453.09" y="2948.12" type="priority"/>
    <node id="2192220158" x="4434.83" y="2964.69" type="priority"/>
    <node id="2192220161" x="4440.83" y="2964.50" type="priority"/>
    <node id="2192220177" x="4369.27" y="3337.49" type="priority"/>
    <node id="2192220179" x="4546.79" y="3341.83" type="priority"/>
    <node id="2192220180" x="4363.66" y="3348.86" type="priority"/>
    <node id="2192220182" x="4378.13" y="3348.92" type="priority"/>
    <node id="2192220183" x="4370.47" y="3357.73" type="priority"/>
    <node id="2192220186" x="4552.78" y="3359.60" type="priority"/>
    <node id="2192220189" x="4546.37" y="3363.11" type="priority"/>
    <node id="2192220224" x="4424.79" y="3740.55" type="priority"/>
    <node id="2192220226" x="4442.42" y="3750.81" type="priority"/>
    <node id="2192220227" x="4430.31" y="3760.59" type="priority"/>
    <node id="2192220228" x="4430.35" y="3947.45" type="priority"/>
    <node id="2192220230" x="4421.76" y="3954.95" type="priority"/>
    <node id="2192220234" x="4439.18" y="3955.10" type="priority"/>
    <node id="2192220237" x="4430.26" y="3963.22" type="priority"/>
    <node id="2192220262" x="4428.20" y="4150.45" type="priority"/>
    <node id="2192220265" x="4420.59" y="4158.62" type="priority"/>
    <node id="2192220268" x="4436.18" y="4158.59" type="priority"/>
    <node id="2192220271" x="4428.01" y="4165.61" type="priority"/>
    <node id="2192220272" x="4427.28" y="4252.89" type="priority"/>
    <node id="2192220273" x="4435.79" y="4260.70" type="priority"/>
    <node id="2192220274" x="4419.13" y="4260.75" type="priority"/>
    <node id="2192220275" x="4427.15" y="4268.60" type="priority"/>
    <node id="2192220280" x="4425.21" y="4958.83" type="priority"/>
    <node id="2192220282" x="4413.01" y="4966.41" type="priority"/>
    <node id="2192220290" x="4437.23" y="4966.40" type="priority"/>
    <node id="2192220293" x="4425.23" y="4974.23" type="priority"/>
    <node id="2192220296" x="4427.28" y="5464.07" type="priority"/>
    <node id="2192220299" x="4439.71" y="5470.75" type="priority"/>
    <node id="2192220300" x="4416.67" y="5470.90" type="priority"/>
    <node id="2192220301" x="4427.30" y="5478.55" type="priority"/>
    <node id="2192220302" x="4428.69" y="5763.81" type="priority"/>
    <node id="2193484340" x="4035.17" y="2735.14" type="priority"/>
    <node id="2193484366" x="4026.92" y="2743.77" type="priority"/>
    <node id="2193484367" x="4044.01" y="2743.88" type="priority"/>
    <node id="2194180306" x="2978.24" y="5097.81" type="priority"/>
    <node id="2194180307" x="2967.56" y="5108.02" type="priority"/>
    <node id="2194180308" x="2988.93" y="5125.56" type="priority"/>
    <node id="2194180309" x="2976.52" y="5128.25" type="priority"/>
    <node id="2194180317" x="3196.61" y="5273.19" type="priority"/>
    <node id="2194180325" x="2067.95" y="5317.03" type="priority"/>
    <node id="2194180328" x="3194.24" y="5317.89" type="priority"/>
    <node id="2194180329" x="3211.21" y="5321.30" type="priority"/>
    <node id="2195233145" x="2618.11" y="3528.71" type="priority"/>
    <node id="2195233146" x="2725.77" y="3528.18" type="priority"/>
    <node id="2195233149" x="2014.32" y="3534.18" type="priority"/>
    <node id="2195233150" x="1610.09" y="3535.36" type="priority"/>
    <node id="2195233153" x="2710.75" y="3538.17" type="priority"/>
    <node id="2195233154" x="2629.33" y="3538.64" type="priority"/>
    <node id="2195233157" x="2024.63" y="3544.29" type="priority"/>
    <node id="2195233158" x="2002.67" y="3544.36" type="priority"/>
    <node id="2195233159" x="2610.36" y="3543.32" type="priority"/>
    <node id="2195233161" x="1599.32" y="3546.26" type="priority"/>
    <node id="2195233162" x="1621.56" y="3546.24" type="priority"/>
    <node id="2195233163" x="2739.95" y="3545.18" type="priority"/>
    <node id="2195233166" x="2710.94" y="3547.28" type="priority"/>
    <node id="2195233167" x="2628.66" y="3547.76" type="priority"/>
    <node id="2195233170" x="1610.02" y="3554.48" type="priority"/>
    <node id="2195233171" x="2014.12" y="3555.00" type="priority"/>
    <node id="2195233172" x="2724.77" y="3556.15" type="priority"/>
    <node id="2195233173" x="2618.30" y="3558.12" type="priority"/>
    <node id="2195233178" x="415.36" y="3597.97" type="priority"/>
    <node id="2195233179" x="388.12" y="3598.08" type="priority"/>
    <node id="2195233203" x="2620.32" y="3740.50" type="priority"/>
    <node id="2195233204" x="4026.57" y="3737.34" type="priority"/>
    <node id="2195233205" x="2612.32" y="3747.13" type="priority"/>
    <node id="2195233208" x="4016.22" y="3748.39" type="priority"/>
    <node id="2195233209" x="4034.69" y="3748.55" type="priority"/>
    <node id="2195233213" x="4837.85" y="3747.40" type="priority"/>
    <node id="2195233214" x="2619.47" y="3755.95" type="priority"/>
    <node id="2195233218" x="4026.35" y="3757.06" type="priority"/>
    <node id="2195233220" x="4830.25" y="3754.94" type="priority"/>
    <node id="2195233221" x="4846.57" y="3755.14" type="priority"/>
    <node id="2195233224" x="4837.82" y="3763.92" type="priority"/>
    <node id="2195307394" x="3247.33" y="528.63" type="priority"/>
    <node id="2195307395" x="3247.17" y="915.23" type="priority"/>
    <node id="2195307396" x="3234.17" y="925.53" type="priority"/>
    <node id="2195307397" x="3259.25" y="925.26" type="priority"/>
    <node id="2195307398" x="3246.54" y="934.18" type="priority"/>
    <node id="2195307399" x="3243.29" y="1318.76" type="priority"/>
    <node id="2195307401" x="3254.75" y="1329.56" type="priority"/>
    <node id="2195307402" x="3254.68" y="1336.16" type="priority"/>
    <node id="2195307404" x="3240.01" y="1597.14" type="priority"/>
    <node id="2195307405" x="3240.02" y="1612.65" type="priority"/>
    <node id="2195307406" x="3241.48" y="1764.70" type="priority"/>
    <node id="2195307409" x="3229.46" y="1775.67" type="priority"/>
    <node id="2195307410" x="3242.09" y="1785.59" type="priority"/>
    <node id="2195307411" x="3237.22" y="2124.21" type="priority"/>
    <node id="2195307412" x="3233.39" y="2144.49" type="priority"/>
    <node id="2195307413" x="3237.57" y="2144.41" type="priority"/>
    <node id="2195307524" x="3300.82" y="3507.87" type="priority"/>
    <node id="2195307537" x="3300.42" y="3522.69" type="priority"/>
    <node id="2195307541" x="3149.63" y="3619.37" type="priority"/>
    <node id="2195307639" x="3517.88" y="5480.74" type="priority"/>
    <node id="2195307640" x="3518.40" y="5492.58" type="priority"/>
    <node id="2197189474" x="811.31" y="2119.24" type="priority"/>
    <node id="2197189477" x="2026.65" y="2119.33" type="priority"/>
    <node id="2197189478" x="1622.13" y="2128.23" type="priority"/>
    <node id="2197189480" x="799.74" y="2132.67" type="priority"/>
    <node id="2197189481" x="825.36" y="2133.00" type="priority"/>
    <node id="2197189482" x="2034.02" y="2129.53" type="priority"/>
    <node id="2197189483" x="2016.88" y="2129.93" type="priority"/>
    <node id="2197189487" x="1634.61" y="2139.14" type="priority"/>
    <node id="2197189488" x="1613.29" y="2139.37" type="priority"/>
    <node id="2197189489" x="2026.45" y="2139.05" type="priority"/>
    <node id="2197189490" x="3399.02" y="2135.83" type="priority"/>
    <node id="2197189491" x="811.41" y="2144.54" type="priority"/>
    <node id="2197189494" x="1622.30" y="2150.91" type="priority"/>
    <node id="2197189495" x="3409.58" y="2149.42" type="priority"/>
    <node id="2197189503" x="2813.41" y="2282.69" type="priority"/>
    <node id="2198939863" x="815.42" y="342.64" type="priority"/>
    <node id="2198939868" x="2435.51" y="905.29" type="priority"/>
    <node id="2198939871" x="2424.44" y="920.35" type="priority"/>
    <node id="2198939872" x="2446.70" y="920.31" type="priority"/>
    <node id="2198939873" x="3648.57" y="920.05" type="priority"/>
    <node id="2198939874" x="3640.92" y="927.22" type="priority"/>
    <node id="2198939875" x="3657.01" y="927.46" type="priority"/>
    <node id="2198939876" x="4064.14" y="926.11" type="priority"/>
    <node id="2198939877" x="2435.52" y="932.75" type="priority"/>
    <node id="2198939878" x="4456.09" y="928.52" type="priority"/>
    <node id="2198939879" x="4858.08" y="928.25" type="priority"/>
    <node id="2198939880" x="4074.22" y="931.46" type="priority"/>
    <node id="2198939881" x="3648.49" y="936.77" type="priority"/>
    <node id="2198939882" x="4446.21" y="934.32" type="priority"/>
    <node id="2198939883" x="4461.96" y="934.45" type="priority"/>