<?xml version="1.0" encoding="UTF-8"?>

<!-- generated on 06/19/19 13:59:32 by Eclipse SUMO netedit Version v1_0_1+0383-8ba62d898b
<configuration xmlns:xsi="http://www.w3.org/2001/XMLSchema-instance" xsi:noNamespaceSchemaLocation="http://sumo.dlr.de/xsd/netconvertConfiguration.xsd">

    <input>
        <sumo-net-file value="leopard.net.xml"/>
    </input>

    <output>
        <output-file value="leopard.net.xml"/>
        <plain-output-prefix value="C:\sumo-windows10\projects\leopard\data\leopard"/>
    </output>

    <processing>
        <offset.disable-normalization value="true"/>
        <lefthand value="false"/>
    </processing>

    <junctions>
        <no-turnarounds value="true"/>
        <junctions.corner-detail value="0"/>
        <junctions.limit-turn-speed value="-1"/>
        <rectangular-lane-cut value="false"/>
    </junctions>

    <pedestrian>
        <walkingareas value="false"/>
    </pedestrian>

</configuration>
-->

<nodes version="1.0" xmlns:xsi="http://www.w3.org/2001/XMLSchema-instance" xsi:noNamespaceSchemaLocation="http://sumo.dlr.de/xsd/nodes_file.xsd">
    <location netOffset="0.00,0.00" convBoundary="-1238.59,-174.44,243.65,194.55" origBoundary="-10000000000.00,-10000000000.00,10000000000.00,10000000000.00" projParameter="!"/>

    <node id="gneJ10" x="85.58" y="106.58" type="priority"/>
    <node id="gneJ100" x="-261.90" y="-11.07" type="priority"/>
    <node id="gneJ101" x="-289.27" y="2.26" type="priority"/>
    <node id="gneJ103" x="-291.37" y="-81.94" type="priority"/>
    <node id="gneJ104" x="-284.35" y="-107.19" type="priority"/>
    <node id="gneJ106" x="-144.73" y="-36.33" type="priority"/>
    <node id="gneJ107" x="-224.71" y="-52.47" type="priority"/>
    <node id="gneJ109" x="-286.43" y="-50.56" type="priority"/>
    <node id="gneJ11" x="129.67" y="104.45" type="priority"/>
    <node id="gneJ110" x="-8.00" y="-23.63" type="priority"/>
    <node id="gneJ111" x="-27.41" y="-29.97" type="priority"/>
    <node id="gneJ113" x="-117.01" y="-78.29" type="priority"/>
    <node id="gneJ114" x="102.89" y="-60.27" type="priority"/>
    <node id="gneJ115" x="-0.50" y="-107.24" type="priority"/>
    <node id="gneJ116" x="70.82" y="-107.82" type="priority"/>
    <node id="gneJ117" x="134.61" y="-54.47" type="priority"/>
    <node id="gneJ118" x="156.06" y="-66.07" type="priority"/>
    <node id="gneJ119" x="163.60" y="-85.21" type="priority"/>
    <node id="gneJ12" x="147.74" y="78.95" type="priority"/>
    <node id="gneJ120" x="142.73" y="-92.75" type="priority"/>
    <node id="gneJ121" x="124.17" y="-87.53" type="priority"/>
    <node id="gneJ122" x="177.78" y="-68.23" type="priority"/>
    <node id="gneJ123" x="199.92" y="-75.09" type="priority"/>
    <node id="gneJ124" x="215.21" y="-82.47" type="priority"/>
    <node id="gneJ125" x="218.90" y="-96.70" type="priority"/>
    <node id="gneJ14" x="205.65" y="53.45" type="priority"/>
    <node id="gneJ148" x="200.34" y="-112.13" type="priority"/>
    <node id="gneJ149" x="158.21" y="-115.69" type="priority"/>
    <node id="gneJ15" x="184.40" y="47.07" type="priority"/>
    <node id="gneJ150" x="149.31" y="-106.79" type="priority"/>
    <node id="gneJ153" x="228.22" y="-81.87" type="priority"/>
    <node id="gneJ154" x="243.65" y="-99.67" type="priority"/>
    <node id="gneJ155" x="241.87" y="-119.25" type="priority"/>
    <node id="gneJ156" x="215.17" y="-129.34" type="priority"/>
    <node id="gneJ157" x="143.97" y="-130.53" type="priority"/>
    <node id="gneJ158" x="104.21" y="-121.63" type="priority"/>
    <node id="gneJ16" x="177.49" y="36.44" type="priority"/>
    <node id="gneJ160" x="-338.23" y="145.54" type="priority"/>
    <node id="gneJ161" x="-426.54" y="144.10" type="priority"/>
    <node id="gneJ162" x="-565.69" y="148.02" type="priority"/>
    <node id="gneJ163" x="-660.98" y="157.81" type="priority"/>
    <node id="gneJ164" x="-544.15" y="108.20" type="priority"/>
    <node id="gneJ165" x="-587.23" y="106.24" type="priority"/>
    <node id="gneJ167" x="-613.99" y="94.50" type="priority"/>
    <node id="gneJ168" x="-639.44" y="72.96" type="priority"/>
    <node id="gneJ169" x="-662.01" y="37.44" type="priority"/>
    <node id="gneJ170" x="-488.26" y="100.62" type="priority"/>
    <node id="gneJ171" x="-461.41" y="101.41" type="priority"/>
    <node id="gneJ172" x="-436.93" y="82.46" type="priority"/>
    <node id="gneJ174" x="-408.84" y="34.90" type="priority"/>
    <node id="gneJ175" x="-439.64" y="6.93" type="priority"/>
    <node id="gneJ176" x="-404.40" y="-20.85" type="priority"/>
    <node id="gneJ18" x="200.34" y="10.94" type="priority"/>
    <node id="gneJ180" x="-396.56" y="-58.06" type="priority"/>
    <node id="gneJ182" x="-430.50" y="-75.68" type="priority"/>
    <node id="gneJ183" x="-497.73" y="-90.69" type="priority"/>
    <node id="gneJ19" x="205.65" y="34.85" type="priority"/>
    <node id="gneJ191" x="-528.33" y="-89.99" type="priority"/>
    <node id="gneJ192" x="-605.47" y="-63.28" type="priority"/>
    <node id="gneJ193" x="-669.55" y="-30.06" type="priority"/>
    <node id="gneJ194" x="-710.49" y="-20.56" type="priority"/>
    <node id="gneJ195" x="-738.97" y="-34.21" type="priority"/>
    <node id="gneJ196" x="-624.81" y="104.63" type="priority"/>
    <node id="gneJ197" x="-633.11" y="136.67" type="priority"/>
    <node id="gneJ198" x="-701.35" y="181.41" type="priority"/>
    <node id="gneJ199" x="-755.34" y="174.29" type="priority"/>
    <node id="gneJ2" x="73.94" y="55.94" type="priority"/>
    <node id="gneJ20" x="166.96" y="41.13" type="priority"/>
    <node id="gneJ200" x="-829.51" y="177.26" type="priority"/>
    <node id="gneJ201" x="-785.60" y="156.49" type="priority"/>
    <node id="gneJ202" x="-820.61" y="145.22" type="priority"/>
    <node id="gneJ203" x="-847.31" y="125.64" type="priority"/>
    <node id="gneJ204" x="-856.81" y="58.59" type="priority"/>
    <node id="gneJ207" x="-822.98" y="63.34" type="priority"/>
    <node id="gneJ208" x="-793.91" y="58.00" type="priority"/>
    <node id="gneJ209" x="-774.33" y="39.60" type="priority"/>
    <node id="gneJ21" x="206.29" y="2.01" type="priority"/>
    <node id="gneJ210" x="-682.36" y="6.37" type="priority"/>
    <node id="gneJ211" x="-771.82" y="-59.31" type="priority"/>
    <node id="gneJ214" x="-775.38" y="-71.77" type="priority"/>
    <node id="gneJ215" x="-804.46" y="-79.48" type="priority"/>
    <node id="gneJ216" x="-844.21" y="-68.21" type="priority"/>
    <node id="gneJ217" x="-899.99" y="-62.87" type="priority"/>
    <node id="gneJ218" x="-929.65" y="-43.88" type="priority"/>
    <node id="gneJ219" x="-909.48" y="47.49" type="priority"/>
    <node id="gneJ22" x="196.49" y="-12.14" type="priority"/>
    <node id="gneJ220" x="-958.13" y="58.17" type="priority"/>
    <node id="gneJ221" x="-980.68" y="76.57" type="priority"/>
    <node id="gneJ222" x="-995.51" y="77.16" type="priority"/>
    <node id="gneJ223" x="-1045.36" y="41.56" type="priority"/>
    <node id="gneJ224" x="-1007.97" y="51.05" type="priority"/>
    <node id="gneJ225" x="-987.80" y="61.14" type="priority"/>
    <node id="gneJ226" x="-973.56" y="51.65" type="priority"/>
    <node id="gneJ227" x="-953.25" y="-23.71" type="priority"/>
    <node id="gneJ23" x="178.35" y="-13.95" type="priority"/>
    <node id="gneJ231" x="-987.94" y="-14.81" type="priority"/>
    <node id="gneJ232" x="-1019.22" y="-20.74" type="priority"/>
    <node id="gneJ233" x="-1091.50" y="11.62" type="priority"/>
    <node id="gneJ234" x="-1115.78" y="22.41" type="priority"/>
    <node id="gneJ235" x="-1138.97" y="14.86" type="priority"/>
    <node id="gneJ236" x="-1162.70" y="-5.64" type="priority"/>
    <node id="gneJ237" x="-1120.09" y="-45.01" type="priority"/>
    <node id="gneJ238" x="-1061.84" y="-42.32" type="priority"/>
    <node id="gneJ239" x="-720.39" y="-83.47" type="priority"/>
    <node id="gneJ24" x="143.15" y="-0.53" type="priority"/>
    <node id="gneJ240" x="-653.35" y="-76.35" type="priority"/>
    <node id="gneJ241" x="-873.15" y="172.22" type="priority"/>
    <node id="gneJ242" x="-942.79" y="134.17" type="priority"/>
    <node id="gneJ245" x="-1104.33" y="37.96" type="priority"/>
    <node id="gneJ246" x="-1148.13" y="31.50" type="priority"/>
    <node id="gneJ247" x="-1189.77" y="51.60" type="priority"/>
    <node id="gneJ249" x="-1208.44" y="61.65" type="priority"/>
    <node id="gneJ25" x="121.01" y="2.38" type="priority"/>
    <node id="gneJ250" x="-1233.56" y="56.63" type="priority"/>
    <node id="gneJ251" x="-1238.59" y="38.68" type="priority"/>
    <node id="gneJ252" x="-1217.77" y="18.58" type="priority"/>
    <node id="gneJ253" x="-924.65" y="86.57" type="priority"/>
    <node id="gneJ254" x="-880.21" y="119.20" type="priority"/>
    <node id="gneJ255" x="-852.26" y="134.41" type="priority"/>
    <node id="gneJ26" x="110.12" y="-7.78" type="priority"/>
    <node id="gneJ269" x="-812.62" y="-108.89" type="priority"/>
    <node id="gneJ27" x="122.46" y="-17.22" type="priority"/>
    <node id="gneJ270" x="-732.93" y="-121.09" type="priority"/>
    <node id="gneJ271" x="-689.85" y="-108.89" type="priority"/>
    <node id="gneJ272" x="-695.60" y="-96.68" type="priority"/>
    <node id="gneJ273" x="-363.97" y="-121.75" type="priority"/>
    <node id="gneJ28" x="139.88" y="-17.48" type="priority"/>
    <node id="gneJ288" x="-329.88" y="-112.62" type="priority"/>
    <node id="gneJ289" x="-308.56" y="-109.46" type="priority"/>
    <node id="gneJ290" x="-261.18" y="-129.21" type="priority"/>
    <node id="gneJ291" x="-233.54" y="-130.00" type="priority"/>
    <node id="gneJ292" x="-349.63" y="-143.42" type="priority"/>
    <node id="gneJ3" x="108.42" y="74.06" type="priority"/>
    <node id="gneJ30" x="173.99" y="-38.89" type="priority"/>
    <node id="gneJ301" x="-206.17" y="-147.68" type="priority"/>
    <node id="gneJ302" x="-202.35" y="-166.79" type="priority"/>
    <node id="gneJ303" x="-243.44" y="-174.44" type="priority"/>
    <node id="gneJ304" x="-329.44" y="-164.88" type="priority"/>
    <node id="gneJ31" x="141.33" y="-33.45" type="priority"/>
    <node id="gneJ32" x="122.10" y="-33.81" type="priority"/>
    <node id="gneJ33" x="66.21" y="-14.94" type="priority"/>
    <node id="gneJ34" x="48.04" y="104.84" type="priority"/>
    <node id="gneJ343" x="-373.43" y="40.53" type="priority"/>
    <node id="gneJ344" x="-369.42" y="4.99" type="priority"/>
    <node id="gneJ345" x="-336.18" y="-0.16" type="priority"/>
    <node id="gneJ346" x="-318.41" y="6.71" type="priority"/>
    <node id="gneJ347" x="-329.88" y="27.34" type="priority"/>
    <node id="gneJ348" x="-325.86" y="-17.93" type="priority"/>
    <node id="gneJ349" x="-344.20" y="-28.25" type="priority"/>
    <node id="gneJ35" x="-11.68" y="113.63" type="priority"/>
    <node id="gneJ350" x="-345.35" y="-55.76" type="priority"/>
    <node id="gneJ351" x="-326.44" y="-82.69" type="priority"/>
    <node id="gneJ352" x="-312.68" y="-55.76" type="priority"/>
    <node id="gneJ353" x="-322.88" y="-129.10" type="priority"/>
    <node id="gneJ354" x="-290.73" y="-140.44" type="priority"/>
    <node id="gneJ355" x="-377.82" y="-33.82" type="priority"/>
    <node id="gneJ356" x="-367.61" y="-60.31" type="priority"/>
    <node id="gneJ357" x="-363.00" y="-87.26" type="priority"/>
    <node id="gneJ358" x="-348.17" y="-99.41" type="priority"/>
    <node id="gneJ359" x="-313.35" y="98.11" type="priority"/>
    <node id="gneJ360" x="-290.26" y="109.07" type="priority"/>
    <node id="gneJ361" x="-266.38" y="89.89" type="priority"/>
    <node id="gneJ362" x="-280.08" y="62.09" type="priority"/>
    <node id="gneJ363" x="-303.57" y="67.97" type="priority"/>
    <node id="gneJ364" x="-350.79" y="100.95" type="priority"/>
    <node id="gneJ365" x="-377.96" y="94.84" type="priority"/>
    <node id="gneJ366" x="-385.44" y="74.91" type="priority"/>
    <node id="gneJ367" x="-349.85" y="64.95" type="priority"/>
    <node id="gneJ368" x="-329.57" y="74.20" type="priority"/>
    <node id="gneJ369" x="-293.63" y="40.04" type="priority"/>
    <node id="gneJ37" x="-53.39" y="129.87" type="priority"/>
    <node id="gneJ370" x="-285.44" y="21.53" type="priority"/>
    <node id="gneJ371" x="-257.68" y="10.15" type="priority"/>
    <node id="gneJ372" x="-237.76" y="20.11" type="priority"/>
    <node id="gneJ373" x="-256.62" y="43.60" type="priority"/>
    <node id="gneJ374" x="-199.21" y="7.91" type="priority"/>
    <node id="gneJ376" x="-106.47" y="2.60" type="priority"/>
    <node id="gneJ377" x="-48.82" y="19.36" type="priority"/>
    <node id="gneJ378" x="-192.22" y="49.54" type="priority"/>
    <node id="gneJ379" x="-212.11" y="33.47" type="priority"/>
    <node id="gneJ38" x="-62.62" y="127.68" type="priority"/>
    <node id="gneJ380" x="-168.52" y="21.92" type="priority"/>
    <node id="gneJ381" x="-156.47" y="45.22" type="priority"/>
    <node id="gneJ382" x="-142.81" y="74.94" type="priority"/>
    <node id="gneJ383" x="-178.76" y="78.56" type="priority"/>
    <node id="gneJ384" x="-237.78" y="151.78" type="priority"/>
    <node id="gneJ385" x="-209.54" y="139.81" type="priority"/>
    <node id="gneJ386" x="-251.54" y="137.43" type="priority"/>
    <node id="gneJ387" x="-182.43" y="111.84" type="priority"/>
    <node id="gneJ388" x="-221.09" y="112.09" type="priority"/>
    <node id="gneJ389" x="-195.90" y="91.10" type="priority"/>
    <node id="gneJ39" x="-62.18" y="111.87" type="priority"/>
    <node id="gneJ390" x="-152.66" y="100.68" type="priority"/>
    <node id="gneJ391" x="-182.63" y="177.82" type="priority"/>
    <node id="gneJ392" x="-155.09" y="169.09" type="priority"/>
    <node id="gneJ393" x="-155.92" y="155.65" type="priority"/>
    <node id="gneJ394" x="135.58" y="68.37" type="priority"/>
    <node id="gneJ395" x="117.90" y="87.59" type="priority"/>
    <node id="gneJ396" x="83.65" y="88.26" type="priority"/>
    <node id="gneJ397" x="-102.00" y="142.77" type="priority"/>
    <node id="gneJ398" x="-87.67" y="148.96" type="priority"/>
    <node id="gneJ399" x="-26.18" y="127.00" type="priority"/>
    <node id="gneJ40" x="-48.13" y="90.79" type="priority"/>
    <node id="gneJ400" x="-100.89" y="92.00" type="priority"/>
    <node id="gneJ401" x="-103.16" y="113.58" type="priority"/>
    <node id="gneJ402" x="-92.65" y="72.82" type="priority"/>
    <node id="gneJ403" x="-66.85" y="75.70" type="priority"/>
    <node id="gneJ404" x="-89.19" y="49.41" type="priority"/>
    <node id="gneJ405" x="-43.50" y="52.43" type="priority"/>
    <node id="gneJ406" x="9.16" y="28.56" type="priority"/>
    <node id="gneJ407" x="-16.14" y="34.44" type="priority"/>
    <node id="gneJ408" x="63.86" y="10.91" type="priority"/>
    <node id="gneJ409" x="98.85" y="2.97" type="priority"/>
    <node id="gneJ41" x="-32.76" y="82.45" type="priority"/>
    <node id="gneJ410" x="137.79" y="13.56" type="priority"/>
    <node id="gneJ411" x="165.73" y="12.97" type="priority"/>
    <node id="gneJ412" x="184.26" y="1.50" type="priority"/>
    <node id="gneJ413" x="-227.72" y="-36.53" type="priority"/>
    <node id="gneJ414" x="-189.99" y="-29.74" type="priority"/>
    <node id="gneJ415" x="-150.60" y="-21.29" type="priority"/>
    <node id="gneJ416" x="-52.23" y="-38.70" type="priority"/>
    <node id="gneJ418" x="-102.84" y="-52.96" type="priority"/>
    <node id="gneJ419" x="-47.00" y="-75.46" type="priority"/>
    <node id="gneJ42" x="-23.97" y="91.23" type="priority"/>
    <node id="gneJ420" x="-85.97" y="-29.66" type="priority"/>
    <node id="gneJ421" x="-67.69" y="-46.74" type="priority"/>
    <node id="gneJ422" x="-33.74" y="-58.99" type="priority"/>
    <node id="gneJ423" x="0.21" y="-81.76" type="priority"/>
    <node id="gneJ424" x="-14.06" y="-58.06" type="priority"/>
    <node id="gneJ425" x="2.62" y="-43.40" type="priority"/>
    <node id="gneJ426" x="31.94" y="-60.67" type="priority"/>
    <node id="gneJ427" x="25.72" y="-84.17" type="priority"/>
    <node id="gneJ428" x="-50.81" y="-94.42" type="priority"/>
    <node id="gneJ429" x="43.85" y="-41.55" type="priority"/>
    <node id="gneJ43" x="-28.80" y="71.03" type="priority"/>
    <node id="gneJ430" x="64.10" y="-85.29" type="priority"/>
    <node id="gneJ431" x="72.07" y="-66.36" type="priority"/>
    <node id="gneJ432" x="94.65" y="-87.11" type="priority"/>
    <node id="gneJ433" x="111.25" y="-101.22" type="priority"/>
    <node id="gneJ435" x="-233.25" y="-153.57" type="priority"/>
    <node id="gneJ436" x="-262.63" y="-157.77" type="priority"/>
    <node id="gneJ438" x="-457.70" y="49.46" type="priority"/>
    <node id="gneJ439" x="-490.86" y="50.41" type="priority"/>
    <node id="gneJ44" x="10.27" y="53.91" type="priority"/>
    <node id="gneJ440" x="-499.86" y="14.89" type="priority"/>
    <node id="gneJ441" x="-471.91" y="-10.21" type="priority"/>
    <node id="gneJ444" x="-504.36" y="71.69" type="priority"/>
    <node id="gneJ445" x="-542.88" y="70.22" type="priority"/>
    <node id="gneJ446" x="-568.18" y="35.22" type="priority"/>
    <node id="gneJ447" x="-548.18" y="1.40" type="priority"/>
    <node id="gneJ449" x="-474.65" y="-42.96" type="priority"/>
    <node id="gneJ45" x="24.33" y="58.30" type="priority"/>
    <node id="gneJ450" x="-502.89" y="-49.43" type="priority"/>
    <node id="gneJ451" x="-521.71" y="-23.26" type="priority"/>
    <node id="gneJ452" x="-495.24" y="-72.37" type="priority"/>
    <node id="gneJ454" x="-527.30" y="-67.96" type="priority"/>
    <node id="gneJ455" x="-541.71" y="-41.49" type="priority"/>
    <node id="gneJ456" x="-587.88" y="-33.85" type="priority"/>
    <node id="gneJ457" x="-594.94" y="1.15" type="priority"/>
    <node id="gneJ458" x="-589.06" y="26.15" type="priority"/>
    <node id="gneJ459" x="-658.82" y="-4.62" type="priority"/>
    <node id="gneJ46" x="-46.81" y="115.38" type="priority"/>
    <node id="gneJ460" x="-626.49" y="-2.91" type="priority"/>
    <node id="gneJ461" x="-627.69" y="28.63" type="priority"/>
    <node id="gneJ462" x="-619.66" y="57.37" type="priority"/>
    <node id="gneJ463" x="-586.51" y="55.16" type="priority"/>
    <node id="gneJ464" x="-578.88" y="82.88" type="priority"/>
    <node id="gneJ465" x="-604.41" y="80.21" type="priority"/>
    <node id="gneJ466" x="-558.21" y="85.89" type="priority"/>
    <node id="gneJ467" x="-510.63" y="117.17" type="priority"/>
    <node id="gneJ468" x="-453.41" y="-54.30" type="priority"/>
    <node id="gneJ469" x="-434.62" y="-30.66" type="priority"/>
    <node id="gneJ47" x="-31.44" y="113.19" type="priority"/>
    <node id="gneJ470" x="-426.80" y="-6.91" type="priority"/>
    <node id="gneJ471" x="203.79" y="-29.88" type="priority"/>
    <node id="gneJ474" x="3.27" y="159.62" type="priority"/>
    <node id="gneJ475" x="-15.80" y="158.28" type="priority"/>
    <node id="gneJ476" x="-566.17" y="131.13" type="priority"/>
    <node id="gneJ477" x="-512.55" y="129.31" type="priority"/>
    <node id="gneJ478" x="-470.08" y="128.48" type="priority"/>
    <node id="gneJ479" x="-453.98" y="115.20" type="priority"/>
    <node id="gneJ48" x="-18.27" y="100.89" type="priority"/>
    <node id="gneJ480" x="-440.36" y="128.48" type="priority"/>
    <node id="gneJ481" x="-420.97" y="117.50" type="priority"/>
    <node id="gneJ482" x="-399.98" y="132.45" type="priority"/>
    <node id="gneJ483" x="-381.18" y="134.51" type="priority"/>
    <node id="gneJ484" x="-347.92" y="133.15" type="priority"/>
    <node id="gneJ485" x="-621.38" y="142.84" type="priority"/>
    <node id="gneJ486" x="-593.58" y="125.73" type="priority"/>
    <node id="gneJ487" x="-160.90" y="140.34" type="priority"/>
    <node id="gneJ488" x="-721.50" y="-53.61" type="priority"/>
    <node id="gneJ489" x="-703.36" y="-43.41" type="priority"/>
    <node id="gneJ49" x="-6.85" y="96.94" type="priority"/>
    <node id="gneJ490" x="-677.94" y="-55.40" type="priority"/>
    <node id="gneJ493" x="-659.47" y="-56.28" type="priority"/>
    <node id="gneJ494" x="-735.38" y="-100.29" type="priority"/>
    <node id="gneJ495" x="-764.24" y="-86.92" type="priority"/>
    <node id="gneJ496" x="-781.52" y="-96.37" type="priority"/>
    <node id="gneJ497" x="-805.03" y="-94.23" type="priority"/>
    <node id="gneJ5" x="121.86" y="60.62" type="priority"/>
    <node id="gneJ50" x="-13.08" y="79.30" type="priority"/>
    <node id="gneJ501" x="-755.98" y="156.14" type="priority"/>
    <node id="gneJ502" x="-725.77" y="138.55" type="priority"/>
    <node id="gneJ503" x="-718.89" y="117.14" type="priority"/>
    <node id="gneJ504" x="-740.30" y="101.27" type="priority"/>
    <node id="gneJ505" x="-770.70" y="109.11" type="priority"/>
    <node id="gneJ506" x="-771.28" y="129.95" type="priority"/>
    <node id="gneJ507" x="-671.67" y="136.38" type="priority"/>
    <node id="gneJ508" x="-651.02" y="128.73" type="priority"/>
    <node id="gneJ509" x="-653.12" y="105.21" type="priority"/>
    <node id="gneJ51" x="5.68" y="79.30" type="priority"/>
    <node id="gneJ510" x="-678.55" y="97.57" type="priority"/>
    <node id="gneJ511" x="-693.27" y="117.26" type="priority"/>
    <node id="gneJ512" x="-715.45" y="161.11" type="priority"/>
    <node id="gneJ513" x="-702.26" y="160.15" type="priority"/>
    <node id="gneJ514" x="-683.73" y="78.98" type="priority"/>
    <node id="gneJ515" x="-666.38" y="69.04" type="priority"/>
    <node id="gneJ516" x="-676.79" y="50.53" type="priority"/>
    <node id="gneJ517" x="-694.60" y="35.49" type="priority"/>
    <node id="gneJ518" x="-712.65" y="54.00" type="priority"/>
    <node id="gneJ519" x="-711.95" y="84.54" type="priority"/>
    <node id="gneJ52" x="20.85" y="86.48" type="priority"/>
    <node id="gneJ520" x="-734.39" y="78.52" type="priority"/>
    <node id="gneJ521" x="-788.06" y="134.28" type="priority"/>
    <node id="gneJ522" x="-813.28" y="119.93" type="priority"/>
    <node id="gneJ523" x="-832.81" y="108.62" type="priority"/>
    <node id="gneJ524" x="-819.62" y="88.27" type="priority"/>
    <node id="gneJ525" x="-782.23" y="82.80" type="priority"/>
    <node id="gneJ526" x="-794.84" y="101.10" type="priority"/>
    <node id="gneJ527" x="-759.30" y="66.81" type="priority"/>
    <node id="gneJ528" x="-756.78" y="49.68" type="priority"/>
    <node id="gneJ529" x="-700.58" y="19.66" type="priority"/>
    <node id="gneJ53" x="36.09" y="82.13" type="priority"/>
    <node id="gneJ530" x="-731.35" y="8.48" type="priority"/>
    <node id="gneJ532" x="-751.38" y="-13.58" type="priority"/>
    <node id="gneJ533" x="-788.70" y="19.72" type="priority"/>
    <node id="gneJ534" x="-752.37" y="20.59" type="priority"/>
    <node id="gneJ536" x="-734.99" y="35.54" type="priority"/>
    <node id="gneJ537" x="-714.48" y="31.89" type="priority"/>
    <node id="gneJ538" x="-803.69" y="-50.69" type="priority"/>
    <node id="gneJ539" x="-787.44" y="-44.19" type="priority"/>
    <node id="gneJ54" x="53.51" y="77.77" type="priority"/>
    <node id="gneJ540" x="-776.35" y="-11.67" type="priority"/>
    <node id="gneJ541" x="-886.90" y="-32.36" type="priority"/>
    <node id="gneJ542" x="-852.66" y="-20.36" type="priority"/>
    <node id="gneJ543" x="-831.63" y="-48.87" type="priority"/>
    <node id="gneJ544" x="-835.38" y="10.92" type="priority"/>
    <node id="gneJ545" x="-864.28" y="32.28" type="priority"/>
    <node id="gneJ546" x="-894.36" y="17.98" type="priority"/>
    <node id="gneJ547" x="-905.92" y="-13.36" type="priority"/>
    <node id="gneJ549" x="-937.68" y="-3.26" type="priority"/>
    <node id="gneJ550" x="-998.46" y="13.35" type="priority"/>
    <node id="gneJ551" x="-979.74" y="33.75" type="priority"/>
    <node id="gneJ552" x="-1001.62" y="35.01" type="priority"/>
    <node id="gneJ553" x="-1027.78" y="22.87" type="priority"/>
    <node id="gneJ554" x="-960.48" y="30.23" type="priority"/>
    <node id="gneJ555" x="-926.41" y="24.13" type="priority"/>
    <node id="gneJ558" x="-801.05" y="37.78" type="priority"/>
    <node id="gneJ559" x="-847.53" y="41.78" type="priority"/>
    <node id="gneJ56" x="60.41" y="86.48" type="priority"/>
    <node id="gneJ560" x="-1116.12" y="-6.17" type="priority"/>
    <node id="gneJ562" x="-1080.79" y="-25.73" type="priority"/>
    <node id="gneJ563" x="-1112.34" y="-25.80" type="priority"/>
    <node id="gneJ564" x="-1054.23" y="-13.65" type="priority"/>
    <node id="gneJ565" x="-1027.07" y="-5.03" type="priority"/>
    <node id="gneJ566" x="-1034.72" y="9.30" type="priority"/>
    <node id="gneJ567" x="-1061.68" y="12.94" type="priority"/>
    <node id="gneJ568" x="-1204.22" y="35.20" type="priority"/>
    <node id="gneJ569" x="-1169.28" y="18.69" type="priority"/>
    <node id="gneJ57" x="63.31" y="121.68" type="priority"/>
    <node id="gneJ571" x="-929.63" y="114.68" type="priority"/>
    <node id="gneJ572" x="-941.32" y="103.30" type="priority"/>
    <node id="gneJ573" x="-891.07" y="133.48" type="priority"/>
    <node id="gneJ574" x="-863.33" y="151.61" type="priority"/>
    <node id="gneJ575" x="-827.93" y="161.41" type="priority"/>
    <node id="gneJ577" x="-1057.87" y="59.62" type="priority"/>
    <node id="gneJ578" x="-1003.20" y="93.90" type="priority"/>
    <node id="gneJ58" x="5.97" y="126.76" type="priority"/>
    <node id="gneJ580" x="29.38" y="149.19" type="priority"/>
    <node id="gneJ581" x="177.80" y="69.32" type="priority"/>
    <node id="gneJ6" x="139.40" y="51.85" type="priority"/>
    <node id="gneJ62" x="4.35" y="-3.33" type="priority"/>
    <node id="gneJ66" x="56.16" y="48.93" type="priority"/>
    <node id="gneJ67" x="82.94" y="33.12" type="priority"/>
    <node id="gneJ68" x="109.29" y="34.00" type="priority"/>
    <node id="gneJ69" x="139.15" y="41.90" type="priority"/>
    <node id="gneJ71" x="-115.31" y="141.45" type="priority"/>
    <node id="gneJ72" x="-24.45" y="142.73" type="priority"/>
    <node id="gneJ73" x="-192.09" y="167.68" type="priority"/>
    <node id="gneJ74" x="-22.53" y="23.72" type="priority"/>
    <node id="gneJ75" x="-52.61" y="37.15" type="priority"/>
    <node id="gneJ76" x="-25.73" y="3.24" type="priority"/>
    <node id="gneJ77" x="-62.84" y="-1.88" type="priority"/>
    <node id="gneJ78" x="-72.44" y="16.04" type="priority"/>
    <node id="gneJ79" x="-99.31" y="28.20" type="priority"/>
    <node id="gneJ8" x="90.36" y="46.54" type="priority"/>
    <node id="gneJ80" x="-144.10" y="186.23" type="priority"/>
    <node id="gneJ81" x="-184.41" y="194.55" type="priority"/>
    <node id="gneJ82" x="-238.80" y="175.36" type="priority"/>
    <node id="gneJ84" x="-154.98" y="127.37" type="priority"/>
    <node id="gneJ85" x="-267.59" y="158.72" type="priority"/>
    <node id="gneJ86" x="-286.15" y="131.21" type="priority"/>
    <node id="gneJ87" x="-116.59" y="85.78" type="priority"/>
    <node id="gneJ88" x="-124.91" y="18.60" type="priority"/>
    <node id="gneJ89" x="-207.45" y="66.59" type="priority"/>
    <node id="gneJ9" x="112.67" y="46.54" type="priority"/>
    <node id="gneJ90" x="-229.84" y="98.58" type="priority"/>
    <node id="gneJ91" x="-377.00" y="112.65" type="priority"/>
    <node id="gneJ92" x="-398.12" y="108.81" type="priority"/>
    <node id="gneJ93" x="-410.91" y="78.74" type="priority"/>
    <node id="gneJ97" x="-379.58" y="-107.64" type="priority"/>
    <node id="gneJ99" x="-193.84" y="-12.47" type="priority"/>
</nodes>
