<?xml version="1.0" encoding="UTF-8"?>

<!-- generated on 06/19/19 13:59:32 by Eclipse SUMO netedit Version v1_0_1+0383-8ba62d898b
<configuration xmlns:xsi="http://www.w3.org/2001/XMLSchema-instance" xsi:noNamespaceSchemaLocation="http://sumo.dlr.de/xsd/netconvertConfiguration.xsd">

    <input>
        <sumo-net-file value="leopard.net.xml"/>
    </input>

    <output>
        <output-file value="leopard.net.xml"/>
        <plain-output-prefix value="C:\sumo-windows10\projects\leopard\data\leopard"/>
    </output>

    <processing>
        <offset.disable-normalization value="true"/>
        <lefthand value="false"/>
    </processing>

    <junctions>
        <no-turnarounds value="true"/>
        <junctions.corner-detail value="0"/>
        <junctions.limit-turn-speed value="-1"/>
        <rectangular-lane-cut value="false"/>
    </junctions>

    <pedestrian>
        <walkingareas value="false"/>
    </pedestrian>

</configuration>
-->

<connections version="1.0" xmlns:xsi="http://www.w3.org/2001/XMLSchema-instance" xsi:noNamespaceSchemaLocation="http://sumo.dlr.de/xsd/connections_file.xsd">
    <connection from="-gneE1" to="gneE4" fromLane="0" toLane="0"/>

    <connection from="-gneE100" to="gneE417" fromLane="0" toLane="0"/>
    <connection from="-gneE100" to="gneE416" fromLane="0" toLane="0"/>
    <connection from="-gneE100" to="-gneE90" fromLane="1" toLane="1"/>
    <connection from="-gneE100" to="-gneE430" fromLane="1" toLane="0"/>

    <connection from="-gneE101" to="-gneE503" fromLane="0" toLane="0"/>
    <connection from="-gneE101" to="-gneE100" fromLane="0" toLane="0"/>
    <connection from="-gneE101" to="-gneE100" fromLane="1" toLane="1"/>
    <connection from="-gneE101" to="-gneE415" fromLane="1" toLane="0"/>

    <connection from="-gneE102" to="gneE423" fromLane="0" toLane="0"/>
    <connection from="-gneE102" to="-gneE101" fromLane="0" toLane="0"/>
    <connection from="-gneE102" to="-gneE101" fromLane="1" toLane="1"/>

    <connection from="-gneE106" to="-gneE113" fromLane="0" toLane="0"/>
    <connection from="-gneE106" to="-gneE113" fromLane="1" toLane="1"/>

    <connection from="-gneE108" to="gneE507" fromLane="0" toLane="0"/>
    <connection from="-gneE108" to="-gneE77" fromLane="0" toLane="0"/>
    <connection from="-gneE108" to="-gneE77" fromLane="1" toLane="1"/>
    <connection from="-gneE108" to="gneE78" fromLane="1" toLane="0"/>

    <connection from="-gneE109" to="gneE116" fromLane="0" toLane="0"/>
    <connection from="-gneE109" to="-gneE108" fromLane="0" toLane="0"/>
    <connection from="-gneE109" to="-gneE108" fromLane="1" toLane="1"/>
    <connection from="-gneE109" to="-gneE505" fromLane="1" toLane="0"/>

    <connection from="-gneE113" to="gneE542" fromLane="0" toLane="0"/>
    <connection from="-gneE113" to="-gneE423" fromLane="0" toLane="0"/>
    <connection from="-gneE113" to="-gneE423" fromLane="1" toLane="1"/>
    <connection from="-gneE113" to="-gneE410" fromLane="1" toLane="0"/>

    <connection from="-gneE114" to="-gneE62" fromLane="0" toLane="0"/>
    <connection from="-gneE114" to="gneE606" fromLane="0" toLane="0"/>
    <connection from="-gneE114" to="gneE76" fromLane="1" toLane="1"/>

    <connection from="-gneE115" to="-gneE527" fromLane="0" toLane="0"/>
    <connection from="-gneE115" to="-gneE527" fromLane="1" toLane="1"/>
    <connection from="-gneE115" to="-gneE114" fromLane="1" toLane="1"/>

    <connection from="-gneE116" to="-gneE108" fromLane="0" toLane="0"/>
    <connection from="-gneE116" to="-gneE505" fromLane="0" toLane="0"/>
    <connection from="-gneE116" to="gneE109" fromLane="1" toLane="1"/>

    <connection from="-gneE119" to="gneE516" fromLane="0" toLane="0"/>
    <connection from="-gneE119" to="-gneE525" fromLane="0" toLane="0"/>
    <connection from="-gneE119" to="-gneE525" fromLane="1" toLane="1"/>

    <connection from="-gneE12" to="gneE17" fromLane="0" toLane="0"/>
    <connection from="-gneE12" to="gneE17" fromLane="1" toLane="1"/>
    <connection from="-gneE12" to="gneE802" fromLane="1" toLane="0"/>

    <connection from="-gneE120" to="-gneE528" fromLane="0" toLane="0"/>
    <connection from="-gneE120" to="-gneE528" fromLane="1" toLane="1"/>
    <connection from="-gneE120" to="-gneE534" fromLane="1" toLane="0"/>

    <connection from="-gneE121" to="-gneE120" fromLane="0" toLane="0"/>
    <connection from="-gneE121" to="-gneE120" fromLane="1" toLane="1"/>

    <connection from="-gneE122" to="gneE125" fromLane="0" toLane="0"/>
    <connection from="-gneE122" to="-gneE121" fromLane="0" toLane="1"/>

    <connection from="-gneE123" to="-gneE122" fromLane="0" toLane="0"/>

    <connection from="-gneE124" to="-gneE123" fromLane="0" toLane="0"/>

    <connection from="-gneE125" to="-gneE121" fromLane="0" toLane="0"/>
    <connection from="-gneE125" to="-gneE121" fromLane="1" toLane="1"/>
    <connection from="-gneE125" to="gneE122" fromLane="1" toLane="0"/>

    <connection from="-gneE126" to="-gneE125" fromLane="0" toLane="0"/>
    <connection from="-gneE126" to="-gneE125" fromLane="1" toLane="1"/>

    <connection from="-gneE127" to="-gneE126" fromLane="0" toLane="0"/>
    <connection from="-gneE127" to="-gneE126" fromLane="1" toLane="1"/>

    <connection from="-gneE128" to="gneE161" fromLane="0" toLane="0"/>
    <connection from="-gneE128" to="-gneE127" fromLane="0" toLane="1"/>

    <connection from="-gneE13" to="-gneE12" fromLane="0" toLane="0"/>
    <connection from="-gneE13" to="-gneE12" fromLane="1" toLane="1"/>

    <connection from="-gneE156" to="-gneE128" fromLane="0" toLane="0"/>

    <connection from="-gneE157" to="-gneE156" fromLane="0" toLane="0"/>

    <connection from="-gneE158" to="-gneE157" fromLane="0" toLane="0"/>

    <connection from="-gneE16" to="-gneE18" fromLane="0" toLane="0"/>
    <connection from="-gneE16" to="-gneE500" fromLane="1" toLane="0"/>
    <connection from="-gneE16" to="gneE20" fromLane="1" toLane="0"/>

    <connection from="-gneE161" to="-gneE127" fromLane="0" toLane="0"/>
    <connection from="-gneE161" to="-gneE127" fromLane="1" toLane="1"/>
    <connection from="-gneE161" to="gneE128" fromLane="1" toLane="0"/>

    <connection from="-gneE162" to="-gneE161" fromLane="0" toLane="0"/>
    <connection from="-gneE162" to="-gneE161" fromLane="1" toLane="1"/>

    <connection from="-gneE163" to="-gneE162" fromLane="0" toLane="0"/>
    <connection from="-gneE163" to="-gneE162" fromLane="1" toLane="1"/>

    <connection from="-gneE164" to="-gneE163" fromLane="0" toLane="0"/>
    <connection from="-gneE164" to="-gneE163" fromLane="1" toLane="1"/>

    <connection from="-gneE165" to="-gneE164" fromLane="0" toLane="0"/>
    <connection from="-gneE165" to="-gneE164" fromLane="1" toLane="1"/>

    <connection from="-gneE166" to="-gneE165" fromLane="0" toLane="0"/>
    <connection from="-gneE166" to="-gneE165" fromLane="1" toLane="1"/>
    <connection from="-gneE166" to="-gneE538" fromLane="1" toLane="0"/>

    <connection from="-gneE167" to="-gneE166" fromLane="0" toLane="0"/>
    <connection from="-gneE167" to="-gneE166" fromLane="1" toLane="1"/>
    <connection from="-gneE167" to="-gneE536" fromLane="1" toLane="0"/>

    <connection from="-gneE168" to="gneE88" fromLane="0" toLane="0"/>
    <connection from="-gneE168" to="gneE440" fromLane="0" toLane="0"/>
    <connection from="-gneE168" to="-gneE87" fromLane="0" toLane="0"/>
    <connection from="-gneE168" to="-gneE87" fromLane="1" toLane="1"/>

    <connection from="-gneE169" to="-gneE626" fromLane="0" toLane="0"/>
    <connection from="-gneE169" to="-gneE168" fromLane="0" toLane="0"/>
    <connection from="-gneE169" to="-gneE168" fromLane="1" toLane="1"/>

    <connection from="-gneE17" to="gneE802" fromLane="0" toLane="0"/>
    <connection from="-gneE17" to="gneE12" fromLane="0" toLane="0"/>

    <connection from="-gneE170" to="-gneE620" fromLane="0" toLane="0"/>
    <connection from="-gneE170" to="-gneE169" fromLane="0" toLane="0"/>
    <connection from="-gneE170" to="-gneE169" fromLane="1" toLane="1"/>

    <connection from="-gneE171" to="gneE613" fromLane="0" toLane="0"/>
    <connection from="-gneE171" to="-gneE170" fromLane="0" toLane="0"/>
    <connection from="-gneE171" to="-gneE170" fromLane="1" toLane="1"/>

    <connection from="-gneE172" to="-gneE590" fromLane="0" toLane="0"/>
    <connection from="-gneE172" to="gneE591" fromLane="0" toLane="0"/>

    <connection from="-gneE173" to="-gneE584" fromLane="0" toLane="0"/>
    <connection from="-gneE173" to="-gneE172" fromLane="0" toLane="0"/>
    <connection from="-gneE173" to="-gneE629" fromLane="0" toLane="0"/>

    <connection from="-gneE175" to="gneE612" fromLane="0" toLane="0"/>
    <connection from="-gneE175" to="gneE202" fromLane="0" toLane="0"/>
    <connection from="-gneE175" to="gneE202" fromLane="1" toLane="1"/>

    <connection from="-gneE176" to="-gneE592" fromLane="0" toLane="0"/>
    <connection from="-gneE176" to="-gneE554" fromLane="0" toLane="0"/>

    <connection from="-gneE177" to="-gneE618" fromLane="0" toLane="0"/>
    <connection from="-gneE177" to="-gneE176" fromLane="0" toLane="0"/>

    <connection from="-gneE179" to="gneE182" fromLane="0" toLane="0"/>
    <connection from="-gneE179" to="gneE394" fromLane="0" toLane="0"/>
    <connection from="-gneE179" to="-gneE181" fromLane="0" toLane="1"/>

    <connection from="-gneE18" to="-gneE13" fromLane="0" toLane="0"/>
    <connection from="-gneE18" to="-gneE13" fromLane="1" toLane="1"/>
    <connection from="-gneE18" to="gneE19" fromLane="1" toLane="0"/>

    <connection from="-gneE181" to="gneE392" fromLane="0" toLane="0"/>
    <connection from="-gneE181" to="-gneE95" fromLane="0" toLane="0"/>
    <connection from="-gneE181" to="-gneE95" fromLane="1" toLane="1"/>
    <connection from="-gneE181" to="gneE551" fromLane="1" toLane="0"/>

    <connection from="-gneE182" to="gneE394" fromLane="0" toLane="0"/>
    <connection from="-gneE182" to="-gneE181" fromLane="0" toLane="0"/>
    <connection from="-gneE182" to="-gneE181" fromLane="1" toLane="1"/>
    <connection from="-gneE182" to="gneE179" fromLane="1" toLane="0"/>

    <connection from="-gneE187" to="gneE189" fromLane="0" toLane="0"/>
    <connection from="-gneE187" to="-gneE372" fromLane="0" toLane="0"/>
    <connection from="-gneE187" to="-gneE369" fromLane="1" toLane="1"/>

    <connection from="-gneE188" to="-gneE187" fromLane="0" toLane="0"/>
    <connection from="-gneE188" to="-gneE187" fromLane="1" toLane="1"/>
    <connection from="-gneE188" to="-gneE634" fromLane="1" toLane="0"/>

    <connection from="-gneE189" to="-gneE372" fromLane="0" toLane="0"/>
    <connection from="-gneE189" to="-gneE369" fromLane="0" toLane="0"/>
    <connection from="-gneE189" to="-gneE369" fromLane="1" toLane="1"/>
    <connection from="-gneE189" to="gneE187" fromLane="1" toLane="1"/>

    <connection from="-gneE19" to="gneE18" fromLane="0" toLane="0"/>
    <connection from="-gneE19" to="-gneE13" fromLane="0" toLane="1"/>

    <connection from="-gneE197" to="-gneE188" fromLane="0" toLane="0"/>
    <connection from="-gneE197" to="-gneE188" fromLane="1" toLane="1"/>
    <connection from="-gneE197" to="gneE562" fromLane="1" toLane="0"/>

    <connection from="-gneE198" to="-gneE197" fromLane="0" toLane="0"/>
    <connection from="-gneE198" to="-gneE197" fromLane="1" toLane="1"/>
    <connection from="-gneE198" to="-gneE796" fromLane="1" toLane="0"/>

    <connection from="-gneE199" to="-gneE246" fromLane="0" toLane="0"/>
    <connection from="-gneE199" to="-gneE198" fromLane="0" toLane="0"/>
    <connection from="-gneE199" to="-gneE198" fromLane="1" toLane="1"/>
    <connection from="-gneE199" to="-gneE568" fromLane="1" toLane="0"/>

    <connection from="-gneE2" to="-gneE467" fromLane="0" toLane="0"/>
    <connection from="-gneE2" to="-gneE1" fromLane="0" toLane="0"/>

    <connection from="-gneE20" to="gneE16" fromLane="0" toLane="0"/>
    <connection from="-gneE20" to="-gneE18" fromLane="0" toLane="1"/>
    <connection from="-gneE20" to="-gneE500" fromLane="0" toLane="0"/>

    <connection from="-gneE200" to="-gneE638" fromLane="0" toLane="0"/>
    <connection from="-gneE200" to="-gneE199" fromLane="0" toLane="0"/>
    <connection from="-gneE200" to="-gneE199" fromLane="1" toLane="1"/>
    <connection from="-gneE200" to="gneE574" fromLane="1" toLane="0"/>

    <connection from="-gneE201" to="-gneE200" fromLane="0" toLane="0"/>
    <connection from="-gneE201" to="gneE215" fromLane="0" toLane="0"/>
    <connection from="-gneE201" to="gneE215" fromLane="1" toLane="1"/>

    <connection from="-gneE202" to="gneE175" fromLane="0" toLane="0"/>
    <connection from="-gneE202" to="gneE175" fromLane="1" toLane="1"/>
    <connection from="-gneE202" to="gneE612" fromLane="1" toLane="0"/>

    <connection from="-gneE203" to="-gneE665" fromLane="0" toLane="0"/>
    <connection from="-gneE203" to="-gneE202" fromLane="0" toLane="0"/>
    <connection from="-gneE203" to="-gneE202" fromLane="1" toLane="1"/>

    <connection from="-gneE204" to="-gneE203" fromLane="0" toLane="0"/>
    <connection from="-gneE204" to="-gneE203" fromLane="1" toLane="1"/>
    <connection from="-gneE204" to="gneE627" fromLane="1" toLane="0"/>

    <connection from="-gneE205" to="-gneE204" fromLane="0" toLane="0"/>
    <connection from="-gneE205" to="-gneE204" fromLane="1" toLane="1"/>
    <connection from="-gneE205" to="-gneE171" fromLane="1" toLane="1"/>

    <connection from="-gneE206" to="gneE672" fromLane="0" toLane="0"/>
    <connection from="-gneE206" to="-gneE205" fromLane="0" toLane="0"/>
    <connection from="-gneE206" to="-gneE205" fromLane="1" toLane="1"/>

    <connection from="-gneE207" to="gneE655" fromLane="0" toLane="0"/>
    <connection from="-gneE207" to="-gneE206" fromLane="0" toLane="0"/>
    <connection from="-gneE207" to="-gneE206" fromLane="1" toLane="1"/>

    <connection from="-gneE208" to="-gneE656" fromLane="0" toLane="0"/>

    <connection from="-gneE21" to="-gneE20" fromLane="0" toLane="0"/>

    <connection from="-gneE210" to="gneE264" fromLane="0" toLane="0"/>
    <connection from="-gneE210" to="gneE264" fromLane="1" toLane="1"/>

    <connection from="-gneE212" to="-gneE210" fromLane="0" toLane="0"/>
    <connection from="-gneE212" to="gneE225" fromLane="0" toLane="0"/>
    <connection from="-gneE212" to="gneE225" fromLane="1" toLane="1"/>
    <connection from="-gneE212" to="-gneE750" fromLane="1" toLane="0"/>

    <connection from="-gneE213" to="-gneE689" fromLane="0" toLane="0"/>
    <connection from="-gneE213" to="-gneE212" fromLane="0" toLane="0"/>
    <connection from="-gneE213" to="-gneE212" fromLane="1" toLane="1"/>

    <connection from="-gneE214" to="gneE690" fromLane="0" toLane="0"/>
    <connection from="-gneE214" to="-gneE213" fromLane="0" toLane="0"/>
    <connection from="-gneE214" to="-gneE213" fromLane="1" toLane="1"/>
    <connection from="-gneE214" to="gneE746" fromLane="1" toLane="0"/>

    <connection from="-gneE215" to="gneE201" fromLane="0" toLane="0"/>
    <connection from="-gneE215" to="gneE201" fromLane="1" toLane="1"/>
    <connection from="-gneE215" to="-gneE200" fromLane="1" toLane="1"/>

    <connection from="-gneE216" to="gneE696" fromLane="0" toLane="0"/>
    <connection from="-gneE216" to="-gneE215" fromLane="0" toLane="0"/>
    <connection from="-gneE216" to="-gneE215" fromLane="1" toLane="1"/>
    <connection from="-gneE216" to="-gneE575" fromLane="1" toLane="0"/>

    <connection from="-gneE217" to="gneE635" fromLane="0" toLane="0"/>
    <connection from="-gneE217" to="-gneE201" fromLane="0" toLane="0"/>
    <connection from="-gneE217" to="-gneE201" fromLane="1" toLane="1"/>
    <connection from="-gneE217" to="gneE699" fromLane="1" toLane="0"/>

    <connection from="-gneE22" to="gneE603" fromLane="0" toLane="0"/>
    <connection from="-gneE22" to="-gneE21" fromLane="1" toLane="0"/>

    <connection from="-gneE220" to="gneE244" fromLane="0" toLane="0"/>
    <connection from="-gneE220" to="-gneE217" fromLane="0" toLane="0"/>
    <connection from="-gneE220" to="-gneE217" fromLane="1" toLane="1"/>
    <connection from="-gneE220" to="gneE712" fromLane="1" toLane="0"/>

    <connection from="-gneE221" to="-gneE220" fromLane="0" toLane="0"/>
    <connection from="-gneE221" to="-gneE220" fromLane="1" toLane="1"/>

    <connection from="-gneE222" to="-gneE649" fromLane="0" toLane="0"/>
    <connection from="-gneE222" to="-gneE221" fromLane="0" toLane="0"/>
    <connection from="-gneE222" to="-gneE221" fromLane="1" toLane="1"/>
    <connection from="-gneE222" to="gneE711" fromLane="1" toLane="0"/>

    <connection from="-gneE223" to="gneE276" fromLane="0" toLane="0"/>
    <connection from="-gneE223" to="-gneE222" fromLane="0" toLane="0"/>
    <connection from="-gneE223" to="-gneE222" fromLane="1" toLane="1"/>
    <connection from="-gneE223" to="-gneE719" fromLane="1" toLane="0"/>

    <connection from="-gneE224" to="-gneE223" fromLane="0" toLane="0"/>
    <connection from="-gneE224" to="-gneE223" fromLane="1" toLane="1"/>
    <connection from="-gneE224" to="gneE716" fromLane="1" toLane="0"/>

    <connection from="-gneE225" to="-gneE750" fromLane="0" toLane="0"/>
    <connection from="-gneE225" to="gneE212" fromLane="0" toLane="0"/>
    <connection from="-gneE225" to="gneE212" fromLane="1" toLane="1"/>
    <connection from="-gneE225" to="-gneE210" fromLane="1" toLane="1"/>

    <connection from="-gneE226" to="gneE741" fromLane="0" toLane="0"/>
    <connection from="-gneE226" to="-gneE225" fromLane="0" toLane="0"/>
    <connection from="-gneE226" to="-gneE225" fromLane="1" toLane="1"/>

    <connection from="-gneE227" to="-gneE738" fromLane="0" toLane="0"/>
    <connection from="-gneE227" to="-gneE226" fromLane="0" toLane="0"/>
    <connection from="-gneE227" to="-gneE226" fromLane="1" toLane="1"/>
    <connection from="-gneE227" to="gneE259" fromLane="1" toLane="1"/>

    <connection from="-gneE228" to="-gneE227" fromLane="0" toLane="0"/>
    <connection from="-gneE228" to="-gneE227" fromLane="1" toLane="1"/>
    <connection from="-gneE228" to="-gneE777" fromLane="1" toLane="0"/>

    <connection from="-gneE229" to="-gneE228" fromLane="0" toLane="0"/>
    <connection from="-gneE229" to="-gneE228" fromLane="1" toLane="1"/>
    <connection from="-gneE229" to="-gneE791" fromLane="1" toLane="0"/>

    <connection from="-gneE23" to="-gneE29" fromLane="0" toLane="0"/>
    <connection from="-gneE23" to="-gneE22" fromLane="0" toLane="0"/>
    <connection from="-gneE23" to="-gneE22" fromLane="1" toLane="1"/>

    <connection from="-gneE230" to="gneE733" fromLane="0" toLane="0"/>

    <connection from="-gneE231" to="-gneE230" fromLane="0" toLane="0"/>

    <connection from="-gneE232" to="-gneE224" fromLane="0" toLane="0"/>
    <connection from="-gneE232" to="-gneE224" fromLane="1" toLane="1"/>

    <connection from="-gneE235" to="-gneE232" fromLane="0" toLane="0"/>
    <connection from="-gneE235" to="-gneE232" fromLane="1" toLane="1"/>
    <connection from="-gneE235" to="-gneE729" fromLane="1" toLane="0"/>

    <connection from="-gneE236" to="-gneE235" fromLane="0" toLane="0"/>
    <connection from="-gneE236" to="-gneE235" fromLane="1" toLane="1"/>
    <connection from="-gneE236" to="gneE730" fromLane="1" toLane="0"/>

    <connection from="-gneE237" to="-gneE735" fromLane="0" toLane="0"/>
    <connection from="-gneE237" to="-gneE229" fromLane="0" toLane="0"/>
    <connection from="-gneE237" to="-gneE229" fromLane="1" toLane="1"/>
    <connection from="-gneE237" to="-gneE792" fromLane="1" toLane="0"/>

    <connection from="-gneE238" to="gneE767" fromLane="0" toLane="0"/>
    <connection from="-gneE238" to="-gneE237" fromLane="1" toLane="1"/>

    <connection from="-gneE239" to="-gneE238" fromLane="0" toLane="0"/>
    <connection from="-gneE239" to="-gneE238" fromLane="1" toLane="1"/>

    <connection from="-gneE24" to="-gneE23" fromLane="0" toLane="0"/>
    <connection from="-gneE24" to="-gneE23" fromLane="1" toLane="1"/>

    <connection from="-gneE240" to="gneE752" fromLane="0" toLane="0"/>
    <connection from="-gneE240" to="-gneE239" fromLane="0" toLane="0"/>
    <connection from="-gneE240" to="-gneE239" fromLane="1" toLane="1"/>
    <connection from="-gneE240" to="-gneE772" fromLane="1" toLane="0"/>

    <connection from="-gneE241" to="-gneE240" fromLane="0" toLane="0"/>
    <connection from="-gneE241" to="-gneE258" fromLane="0" toLane="0"/>
    <connection from="-gneE241" to="-gneE258" fromLane="1" toLane="1"/>

    <connection from="-gneE242" to="gneE756" fromLane="0" toLane="0"/>
    <connection from="-gneE242" to="-gneE241" fromLane="0" toLane="0"/>
    <connection from="-gneE242" to="-gneE241" fromLane="1" toLane="1"/>

    <connection from="-gneE243" to="-gneE242" fromLane="0" toLane="0"/>
    <connection from="-gneE243" to="-gneE242" fromLane="1" toLane="1"/>

    <connection from="-gneE244" to="-gneE217" fromLane="0" toLane="0"/>
    <connection from="-gneE244" to="gneE712" fromLane="0" toLane="0"/>
    <connection from="-gneE244" to="gneE220" fromLane="1" toLane="1"/>

    <connection from="-gneE245" to="-gneE244" fromLane="0" toLane="0"/>
    <connection from="-gneE245" to="-gneE244" fromLane="1" toLane="1"/>
    <connection from="-gneE245" to="-gneE280" fromLane="1" toLane="1"/>

    <connection from="-gneE246" to="gneE643" fromLane="0" toLane="0"/>
    <connection from="-gneE246" to="-gneE245" fromLane="0" toLane="0"/>
    <connection from="-gneE246" to="-gneE245" fromLane="1" toLane="1"/>

    <connection from="-gneE247" to="gneE786" fromLane="0" toLane="0"/>
    <connection from="-gneE247" to="-gneE207" fromLane="0" toLane="0"/>
    <connection from="-gneE247" to="-gneE207" fromLane="1" toLane="1"/>

    <connection from="-gneE248" to="-gneE781" fromLane="0" toLane="0"/>
    <connection from="-gneE248" to="-gneE247" fromLane="0" toLane="0"/>
    <connection from="-gneE248" to="-gneE247" fromLane="1" toLane="1"/>

    <connection from="-gneE25" to="-gneE24" fromLane="0" toLane="0"/>
    <connection from="-gneE25" to="-gneE24" fromLane="1" toLane="1"/>

    <connection from="-gneE252" to="gneE788" fromLane="0" toLane="0"/>
    <connection from="-gneE252" to="gneE788" fromLane="1" toLane="1"/>

    <connection from="-gneE253" to="-gneE771" fromLane="0" toLane="0"/>
    <connection from="-gneE253" to="gneE772" fromLane="0" toLane="0"/>
    <connection from="-gneE253" to="-gneE252" fromLane="0" toLane="0"/>
    <connection from="-gneE253" to="-gneE252" fromLane="1" toLane="1"/>

    <connection from="-gneE254" to="gneE769" fromLane="0" toLane="0"/>
    <connection from="-gneE254" to="-gneE253" fromLane="0" toLane="0"/>
    <connection from="-gneE254" to="-gneE253" fromLane="1" toLane="1"/>

    <connection from="-gneE255" to="-gneE254" fromLane="0" toLane="0"/>
    <connection from="-gneE255" to="-gneE254" fromLane="1" toLane="1"/>

    <connection from="-gneE256" to="-gneE255" fromLane="0" toLane="0"/>
    <connection from="-gneE256" to="-gneE255" fromLane="1" toLane="1"/>

    <connection from="-gneE257" to="-gneE256" fromLane="0" toLane="0"/>
    <connection from="-gneE257" to="-gneE256" fromLane="1" toLane="1"/>

    <connection from="-gneE258" to="gneE768" fromLane="0" toLane="0"/>
    <connection from="-gneE258" to="-gneE257" fromLane="0" toLane="0"/>
    <connection from="-gneE258" to="-gneE257" fromLane="1" toLane="1"/>

    <connection from="-gneE259" to="gneE227" fromLane="0" toLane="0"/>
    <connection from="-gneE259" to="-gneE738" fromLane="0" toLane="0"/>
    <connection from="-gneE259" to="-gneE226" fromLane="1" toLane="1"/>

    <connection from="-gneE26" to="-gneE25" fromLane="0" toLane="0"/>
    <connection from="-gneE26" to="-gneE25" fromLane="1" toLane="1"/>

    <connection from="-gneE260" to="-gneE776" fromLane="0" toLane="0"/>
    <connection from="-gneE260" to="-gneE259" fromLane="0" toLane="0"/>
    <connection from="-gneE260" to="-gneE259" fromLane="1" toLane="1"/>

    <connection from="-gneE261" to="-gneE779" fromLane="0" toLane="0"/>
    <connection from="-gneE261" to="-gneE260" fromLane="0" toLane="0"/>
    <connection from="-gneE261" to="-gneE260" fromLane="1" toLane="1"/>

    <connection from="-gneE262" to="-gneE261" fromLane="0" toLane="0"/>
    <connection from="-gneE262" to="-gneE261" fromLane="1" toLane="1"/>
    <connection from="-gneE262" to="-gneE264" fromLane="1" toLane="1"/>

    <connection from="-gneE264" to="gneE210" fromLane="0" toLane="0"/>
    <connection from="-gneE264" to="gneE210" fromLane="1" toLane="1"/>

    <connection from="-gneE276" to="-gneE222" fromLane="0" toLane="0"/>
    <connection from="-gneE276" to="-gneE719" fromLane="1" toLane="0"/>
    <connection from="-gneE276" to="gneE223" fromLane="1" toLane="1"/>

    <connection from="-gneE277" to="-gneE650" fromLane="0" toLane="0"/>
    <connection from="-gneE277" to="-gneE276" fromLane="0" toLane="0"/>
    <connection from="-gneE277" to="-gneE276" fromLane="1" toLane="1"/>

    <connection from="-gneE278" to="gneE645" fromLane="0" toLane="0"/>
    <connection from="-gneE278" to="-gneE277" fromLane="0" toLane="0"/>
    <connection from="-gneE278" to="-gneE277" fromLane="1" toLane="1"/>

    <connection from="-gneE279" to="-gneE278" fromLane="0" toLane="0"/>
    <connection from="-gneE279" to="-gneE278" fromLane="1" toLane="1"/>

    <connection from="-gneE28" to="-gneE26" fromLane="0" toLane="0"/>
    <connection from="-gneE28" to="-gneE26" fromLane="1" toLane="1"/>

    <connection from="-gneE280" to="-gneE279" fromLane="0" toLane="0"/>
    <connection from="-gneE280" to="-gneE279" fromLane="1" toLane="1"/>

    <connection from="-gneE281" to="gneE373" fromLane="0" toLane="0"/>
    <connection from="-gneE281" to="-gneE189" fromLane="0" toLane="0"/>
    <connection from="-gneE281" to="-gneE189" fromLane="1" toLane="1"/>

    <connection from="-gneE29" to="-gneE28" fromLane="0" toLane="0"/>
    <connection from="-gneE29" to="-gneE28" fromLane="1" toLane="1"/>

    <connection from="-gneE296" to="-gneE412" fromLane="0" toLane="0"/>
    <connection from="-gneE296" to="-gneE366" fromLane="0" toLane="0"/>

    <connection from="-gneE297" to="-gneE413" fromLane="0" toLane="0"/>
    <connection from="-gneE297" to="-gneE296" fromLane="0" toLane="0"/>

    <connection from="-gneE298" to="-gneE106" fromLane="0" toLane="0"/>
    <connection from="-gneE298" to="-gneE106" fromLane="1" toLane="1"/>
    <connection from="-gneE298" to="-gneE297" fromLane="1" toLane="0"/>
    <connection from="-gneE298" to="-gneE368" fromLane="1" toLane="0"/>

    <connection from="-gneE299" to="-gneE298" fromLane="0" toLane="0"/>
    <connection from="-gneE299" to="-gneE298" fromLane="1" toLane="1"/>

    <connection from="-gneE3" to="-gneE7" fromLane="0" toLane="0"/>

    <connection from="-gneE300" to="-gneE375" fromLane="0" toLane="0"/>
    <connection from="-gneE300" to="-gneE281" fromLane="0" toLane="0"/>
    <connection from="-gneE300" to="-gneE281" fromLane="1" toLane="1"/>

    <connection from="-gneE310" to="-gneE299" fromLane="0" toLane="0"/>
    <connection from="-gneE310" to="-gneE299" fromLane="1" toLane="1"/>
    <connection from="-gneE310" to="gneE543" fromLane="1" toLane="0"/>

    <connection from="-gneE311" to="-gneE310" fromLane="0" toLane="0"/>
    <connection from="-gneE311" to="-gneE310" fromLane="1" toLane="1"/>

    <connection from="-gneE312" to="-gneE311" fromLane="0" toLane="0"/>
    <connection from="-gneE312" to="-gneE311" fromLane="1" toLane="1"/>

    <connection from="-gneE313" to="-gneE312" fromLane="0" toLane="0"/>
    <connection from="-gneE313" to="-gneE312" fromLane="1" toLane="1"/>

    <connection from="-gneE314" to="-gneE313" fromLane="0" toLane="0"/>
    <connection from="-gneE314" to="-gneE313" fromLane="1" toLane="1"/>

    <connection from="-gneE32" to="-gneE604" fromLane="0" toLane="0"/>

    <connection from="-gneE33" to="-gneE32" fromLane="0" toLane="0"/>
    <connection from="-gneE33" to="-gneE32" fromLane="1" toLane="1"/>

    <connection from="-gneE34" to="-gneE33" fromLane="0" toLane="0"/>
    <connection from="-gneE34" to="-gneE33" fromLane="1" toLane="1"/>

    <connection from="-gneE35" to="-gneE460" fromLane="0" toLane="0"/>
    <connection from="-gneE35" to="gneE607" fromLane="0" toLane="0"/>
    <connection from="-gneE35" to="gneE475" fromLane="1" toLane="0"/>

    <connection from="-gneE355" to="-gneE359" fromLane="0" toLane="0"/>
    <connection from="-gneE355" to="gneE395" fromLane="0" toLane="0"/>
    <connection from="-gneE355" to="-gneE394" fromLane="0" toLane="0"/>

    <connection from="-gneE356" to="-gneE355" fromLane="0" toLane="0"/>
    <connection from="-gneE356" to="-gneE406" fromLane="0" toLane="0"/>

    <connection from="-gneE357" to="-gneE356" fromLane="0" toLane="0"/>
    <connection from="-gneE357" to="gneE407" fromLane="0" toLane="0"/>

    <connection from="-gneE358" to="-gneE357" fromLane="0" toLane="0"/>
    <connection from="-gneE358" to="gneE403" fromLane="0" toLane="0"/>

    <connection from="-gneE359" to="-gneE358" fromLane="0" toLane="0"/>
    <connection from="-gneE359" to="-gneE402" fromLane="0" toLane="0"/>
    <connection from="-gneE359" to="-gneE396" fromLane="0" toLane="0"/>

    <connection from="-gneE360" to="-gneE364" fromLane="0" toLane="0"/>
    <connection from="-gneE360" to="-gneE407" fromLane="0" toLane="0"/>

    <connection from="-gneE361" to="-gneE360" fromLane="0" toLane="0"/>
    <connection from="-gneE361" to="gneE408" fromLane="0" toLane="0"/>

    <connection from="-gneE362" to="-gneE361" fromLane="0" toLane="0"/>
    <connection from="-gneE362" to="-gneE409" fromLane="0" toLane="0"/>

    <connection from="-gneE363" to="-gneE362" fromLane="0" toLane="0"/>
    <connection from="-gneE363" to="gneE413" fromLane="0" toLane="0"/>

    <connection from="-gneE364" to="-gneE363" fromLane="0" toLane="0"/>
    <connection from="-gneE364" to="gneE410" fromLane="0" toLane="0"/>

    <connection from="-gneE365" to="-gneE300" fromLane="0" toLane="0"/>