<?xml version="1.0" encoding="UTF-8"?>

<!-- generated on 06/19/19 13:59:32 by Eclipse SUMO netedit Version v1_0_1+0383-8ba62d898b
<configuration xmlns:xsi="http://www.w3.org/2001/XMLSchema-instance" xsi:noNamespaceSchemaLocation="http://sumo.dlr.de/xsd/netconvertConfiguration.xsd">

    <input>
        <sumo-net-file value="leopard.net.xml"/>
    </input>

    <output>
        <output-file value="leopard.net.xml"/>
        <plain-output-prefix value="C:\sumo-windows10\projects\leopard\data\leopard"/>
    </output>

    <processing>
        <offset.disable-normalization value="true"/>
        <lefthand value="false"/>
    </processing>

    <junctions>
        <no-turnarounds value="true"/>
        <junctions.corner-detail value="0"/>
        <junctions.limit-turn-speed value="-1"/>
        <rectangular-lane-cut value="false"/>
    </junctions>

    <pedestrian>
        <walkingareas value="false"/>
    </pedestrian>

</configuration>
-->

<edges version="1.0" xmlns:xsi="http://www.w3.org/2001/XMLSchema-instance" xsi:noNamespaceSchemaLocation="http://sumo.dlr.de/xsd/edges_file.xsd">
    <edge id="-gneE1" from="gneJ3" to="gneJ2" priority="1" numLanes="1" speed="13.89"/>
    <edge id="-gneE100" from="gneJ99" to="gneJ88" priority="1" numLanes="2" speed="13.89"/>
    <edge id="-gneE101" from="gneJ100" to="gneJ99" priority="1" numLanes="2" speed="13.89"/>
    <edge id="-gneE102" from="gneJ101" to="gneJ100" priority="1" numLanes="2" speed="13.89"/>
    <edge id="-gneE106" from="gneJ104" to="gneJ103" priority="1" numLanes="2" speed="13.89"/>
    <edge id="-gneE108" from="gneJ106" to="gneJ77" priority="1" numLanes="2" speed="13.89"/>
    <edge id="-gneE109" from="gneJ107" to="gneJ106" priority="1" numLanes="2" speed="13.89"/>
    <edge id="-gneE113" from="gneJ103" to="gneJ109" priority="1" numLanes="2" speed="13.89"/>
    <edge id="-gneE114" from="gneJ110" to="gneJ62" priority="1" numLanes="2" speed="13.89"/>
    <edge id="-gneE115" from="gneJ111" to="gneJ110" priority="1" numLanes="2" speed="13.89"/>
    <edge id="-gneE116" from="gneJ113" to="gneJ106" priority="1" numLanes="2" speed="13.89"/>
    <edge id="-gneE119" from="gneJ116" to="gneJ115" priority="1" numLanes="2" speed="13.89"/>
    <edge id="-gneE12" from="gneJ15" to="gneJ14" priority="1" numLanes="2" speed="13.89"/>
    <edge id="-gneE120" from="gneJ117" to="gneJ114" priority="1" numLanes="2" speed="13.89"/>
    <edge id="-gneE121" from="gneJ118" to="gneJ117" priority="1" numLanes="2" speed="13.89"/>
    <edge id="-gneE122" from="gneJ119" to="gneJ118" priority="1" numLanes="1" speed="13.89"/>
    <edge id="-gneE123" from="gneJ120" to="gneJ119" priority="1" numLanes="1" speed="13.89"/>
    <edge id="-gneE124" from="gneJ121" to="gneJ120" priority="1" numLanes="1" speed="13.89"/>
    <edge id="-gneE125" from="gneJ122" to="gneJ118" priority="1" numLanes="2" speed="13.89"/>
    <edge id="-gneE126" from="gneJ123" to="gneJ122" priority="1" numLanes="2" speed="13.89"/>
    <edge id="-gneE127" from="gneJ124" to="gneJ123" priority="1" numLanes="2" speed="13.89"/>
    <edge id="-gneE128" from="gneJ125" to="gneJ124" priority="1" numLanes="1" speed="13.89"/>
    <edge id="-gneE13" from="gneJ16" to="gneJ15" priority="1" numLanes="2" speed="13.89"/>
    <edge id="-gneE156" from="gneJ148" to="gneJ125" priority="1" numLanes="1" speed="13.89"/>
    <edge id="-gneE157" from="gneJ149" to="gneJ148" priority="1" numLanes="1" speed="13.89"/>
    <edge id="-gneE158" from="gneJ150" to="gneJ149" priority="1" numLanes="1" speed="13.89"/>
    <edge id="-gneE16" from="gneJ19" to="gneJ18" priority="1" numLanes="2" speed="13.89"/>
    <edge id="-gneE161" from="gneJ153" to="gneJ124" priority="1" numLanes="2" speed="13.89"/>
    <edge id="-gneE162" from="gneJ154" to="gneJ153" priority="1" numLanes="2" speed="13.89"/>
    <edge id="-gneE163" from="gneJ155" to="gneJ154" priority="1" numLanes="2" speed="13.89"/>
    <edge id="-gneE164" from="gneJ156" to="gneJ155" priority="1" numLanes="2" speed="13.89"/>
    <edge id="-gneE165" from="gneJ157" to="gneJ156" priority="1" numLanes="2" speed="13.89"/>
    <edge id="-gneE166" from="gneJ158" to="gneJ157" priority="1" numLanes="2" speed="13.89"/>
    <edge id="-gneE167" from="gneJ116" to="gneJ158" priority="1" numLanes="2" speed="13.89"/>
    <edge id="-gneE168" from="gneJ160" to="gneJ85" priority="1" numLanes="2" speed="13.89"/>
    <edge id="-gneE169" from="gneJ161" to="gneJ160" priority="1" numLanes="2" speed="13.89"/>
    <edge id="-gneE17" from="gneJ19" to="gneJ14" priority="1" numLanes="1" speed="13.89"/>
    <edge id="-gneE170" from="gneJ162" to="gneJ161" priority="1" numLanes="2" speed="13.89"/>
    <edge id="-gneE171" from="gneJ163" to="gneJ162" priority="1" numLanes="2" speed="13.89"/>
    <edge id="-gneE172" from="gneJ165" to="gneJ164" priority="1" numLanes="1" speed="13.89"/>
    <edge id="-gneE173" from="gneJ167" to="gneJ165" priority="1" numLanes="1" speed="13.89"/>
    <edge id="-gneE175" from="gneJ169" to="gneJ168" priority="1" numLanes="2" speed="13.89"/>
    <edge id="-gneE176" from="gneJ171" to="gneJ170" priority="1" numLanes="1" speed="13.89"/>
    <edge id="-gneE177" from="gneJ172" to="gneJ171" priority="1" numLanes="1" speed="13.89"/>
    <edge id="-gneE179" from="gneJ175" to="gneJ174" priority="1" numLanes="1" speed="13.89"/>
    <edge id="-gneE18" from="gneJ18" to="gneJ16" priority="1" numLanes="2" speed="13.89"/>
    <edge id="-gneE181" from="gneJ174" to="gneJ93" priority="1" numLanes="2" speed="13.89"/>
    <edge id="-gneE182" from="gneJ176" to="gneJ174" priority="1" numLanes="2" speed="13.89"/>
    <edge id="-gneE187" from="gneJ182" to="gneJ180" priority="1" numLanes="2" speed="13.89"/>
    <edge id="-gneE188" from="gneJ183" to="gneJ182" priority="1" numLanes="2" speed="13.89"/>
    <edge id="-gneE189" from="gneJ97" to="gneJ180" priority="1" numLanes="2" speed="13.89"/>
    <edge id="-gneE19" from="gneJ20" to="gneJ16" priority="1" numLanes="1" speed="13.89"/>
    <edge id="-gneE197" from="gneJ191" to="gneJ183" priority="1" numLanes="2" speed="13.89"/>
    <edge id="-gneE198" from="gneJ192" to="gneJ191" priority="1" numLanes="2" speed="13.89"/>
    <edge id="-gneE199" from="gneJ193" to="gneJ192" priority="1" numLanes="2" speed="13.89"/>
    <edge id="-gneE2" from="gneJ5" to="gneJ3" priority="1" numLanes="1" speed="13.89"/>
    <edge id="-gneE20" from="gneJ21" to="gneJ18" priority="1" numLanes="1" speed="13.89"/>
    <edge id="-gneE200" from="gneJ194" to="gneJ193" priority="1" numLanes="2" speed="13.89"/>
    <edge id="-gneE201" from="gneJ195" to="gneJ194" priority="1" numLanes="2" speed="13.89"/>
    <edge id="-gneE202" from="gneJ196" to="gneJ168" priority="1" numLanes="2" speed="13.89"/>
    <edge id="-gneE203" from="gneJ197" to="gneJ196" priority="1" numLanes="2" speed="13.89"/>
    <edge id="-gneE204" from="gneJ163" to="gneJ197" priority="1" numLanes="2" speed="13.89"/>
    <edge id="-gneE205" from="gneJ198" to="gneJ163" priority="1" numLanes="2" speed="13.89"/>
    <edge id="-gneE206" from="gneJ199" to="gneJ198" priority="1" numLanes="2" speed="13.89"/>
    <edge id="-gneE207" from="gneJ200" to="gneJ199" priority="1" numLanes="2" speed="13.89"/>
    <edge id="-gneE208" from="gneJ202" to="gneJ201" priority="1" numLanes="2" speed="13.89"/>
    <edge id="-gneE21" from="gneJ22" to="gneJ21" priority="1" numLanes="1" speed="13.89"/>
    <edge id="-gneE210" from="gneJ204" to="gneJ203" priority="1" numLanes="2" speed="13.89"/>
    <edge id="-gneE212" from="gneJ207" to="gneJ204" priority="1" numLanes="2" speed="13.89"/>
    <edge id="-gneE213" from="gneJ208" to="gneJ207" priority="1" numLanes="2" speed="13.89"/>
    <edge id="-gneE214" from="gneJ209" to="gneJ208" priority="1" numLanes="2" speed="13.89"/>
    <edge id="-gneE215" from="gneJ210" to="gneJ194" priority="1" numLanes="2" speed="13.89"/>
    <edge id="-gneE216" from="gneJ169" to="gneJ210" priority="1" numLanes="2" speed="13.89"/>
    <edge id="-gneE217" from="gneJ211" to="gneJ195" priority="1" numLanes="2" speed="13.89"/>
    <edge id="-gneE22" from="gneJ23" to="gneJ22" priority="1" numLanes="2" speed="13.89"/>
    <edge id="-gneE220" from="gneJ214" to="gneJ211" priority="1" numLanes="2" speed="13.89"/>
    <edge id="-gneE221" from="gneJ215" to="gneJ214" priority="1" numLanes="2" speed="13.89"/>
    <edge id="-gneE222" from="gneJ216" to="gneJ215" priority="1" numLanes="2" speed="13.89"/>
    <edge id="-gneE223" from="gneJ217" to="gneJ216" priority="1" numLanes="2" speed="13.89"/>
    <edge id="-gneE224" from="gneJ218" to="gneJ217" priority="1" numLanes="2" speed="13.89"/>
    <edge id="-gneE225" from="gneJ219" to="gneJ204" priority="1" numLanes="2" speed="13.89"/>
    <edge id="-gneE226" from="gneJ220" to="gneJ219" priority="1" numLanes="2" speed="13.89"/>
    <edge id="-gneE227" from="gneJ221" to="gneJ220" priority="1" numLanes="2" speed="13.89"/>
    <edge id="-gneE228" from="gneJ222" to="gneJ221" priority="1" numLanes="2" speed="13.89"/>
    <edge id="-gneE229" from="gneJ223" to="gneJ222" priority="1" numLanes="2" speed="13.89"/>
    <edge id="-gneE23" from="gneJ24" to="gneJ23" priority="1" numLanes="2" speed="13.89"/>
    <edge id="-gneE230" from="gneJ225" to="gneJ224" priority="1" numLanes="1" speed="13.89"/>
    <edge id="-gneE231" from="gneJ226" to="gneJ225" priority="1" numLanes="1" speed="13.89"/>
    <edge id="-gneE232" from="gneJ227" to="gneJ218" priority="1" numLanes="2" speed="13.89"/>
    <edge id="-gneE235" from="gneJ231" to="gneJ227" priority="1" numLanes="2" speed="13.89"/>
    <edge id="-gneE236" from="gneJ232" to="gneJ231" priority="1" numLanes="2" speed="13.89"/>
    <edge id="-gneE237" from="gneJ233" to="gneJ223" priority="1" numLanes="2" speed="13.89"/>
    <edge id="-gneE238" from="gneJ234" to="gneJ233" priority="1" numLanes="2" speed="13.89"/>
    <edge id="-gneE239" from="gneJ235" to="gneJ234" priority="1" numLanes="2" speed="13.89"/>
    <edge id="-gneE24" from="gneJ25" to="gneJ24" priority="1" numLanes="2" speed="13.89"/>
    <edge id="-gneE240" from="gneJ236" to="gneJ235" priority="1" numLanes="2" speed="13.89"/>
    <edge id="-gneE241" from="gneJ237" to="gneJ236" priority="1" numLanes="2" speed="13.89"/>
    <edge id="-gneE242" from="gneJ238" to="gneJ237" priority="1" numLanes="2" speed="13.89"/>
    <edge id="-gneE243" from="gneJ232" to="gneJ238" priority="1" numLanes="2" speed="13.89"/>
    <edge id="-gneE244" from="gneJ239" to="gneJ211" priority="1" numLanes="2" speed="13.89"/>
    <edge id="-gneE245" from="gneJ240" to="gneJ239" priority="1" numLanes="2" speed="13.89"/>
    <edge id="-gneE246" from="gneJ192" to="gneJ240" priority="1" numLanes="2" speed="13.89"/>
    <edge id="-gneE247" from="gneJ241" to="gneJ200" priority="1" numLanes="2" speed="13.89"/>
    <edge id="-gneE248" from="gneJ242" to="gneJ241" priority="1" numLanes="2" speed="13.89"/>
    <edge id="-gneE25" from="gneJ26" to="gneJ25" priority="1" numLanes="2" speed="13.89"/>
    <edge id="-gneE252" from="gneJ246" to="gneJ245" priority="1" numLanes="2" speed="13.89"/>
    <edge id="-gneE253" from="gneJ247" to="gneJ246" priority="1" numLanes="2" speed="13.89"/>
    <edge id="-gneE254" from="gneJ249" to="gneJ247" priority="1" numLanes="2" speed="13.89"/>
    <edge id="-gneE255" from="gneJ250" to="gneJ249" priority="1" numLanes="2" speed="13.89"/>
    <edge id="-gneE256" from="gneJ251" to="gneJ250" priority="1" numLanes="2" speed="13.89"/>
    <edge id="-gneE257" from="gneJ252" to="gneJ251" priority="1" numLanes="2" speed="13.89"/>
    <edge id="-gneE258" from="gneJ236" to="gneJ252" priority="1" numLanes="2" speed="13.89"/>
    <edge id="-gneE259" from="gneJ253" to="gneJ220" priority="1" numLanes="2" speed="13.89"/>
    <edge id="-gneE26" from="gneJ27" to="gneJ26" priority="1" numLanes="2" speed="13.89"/>
    <edge id="-gneE260" from="gneJ254" to="gneJ253" priority="1" numLanes="2" speed="13.89"/>
    <edge id="-gneE261" from="gneJ255" to="gneJ254" priority="1" numLanes="2" speed="13.89"/>
    <edge id="-gneE262" from="gneJ202" to="gneJ255" priority="1" numLanes="2" speed="13.89"/>
    <edge id="-gneE264" from="gneJ255" to="gneJ203" priority="1" numLanes="2" speed="13.89"/>
    <edge id="-gneE276" from="gneJ269" to="gneJ216" priority="1" numLanes="2" speed="13.89"/>
    <edge id="-gneE277" from="gneJ270" to="gneJ269" priority="1" numLanes="2" speed="13.89"/>
    <edge id="-gneE278" from="gneJ271" to="gneJ270" priority="1" numLanes="2" speed="13.89"/>
    <edge id="-gneE279" from="gneJ272" to="gneJ271" priority="1" numLanes="2" speed="13.89"/>
    <edge id="-gneE28" from="gneJ28" to="gneJ27" priority="1" numLanes="2" speed="13.89"/>
    <edge id="-gneE280" from="gneJ239" to="gneJ272" priority="1" numLanes="2" speed="13.89"/>
    <edge id="-gneE281" from="gneJ273" to="gneJ97" priority="1" numLanes="2" speed="13.89"/>
    <edge id="-gneE29" from="gneJ23" to="gneJ28" priority="1" numLanes="2" speed="13.89"/>
    <edge id="-gneE296" from="gneJ289" to="gneJ288" priority="1" numLanes="1" speed="13.89"/>
    <edge id="-gneE297" from="gneJ104" to="gneJ289" priority="1" numLanes="1" speed="13.89"/>
    <edge id="-gneE298" from="gneJ290" to="gneJ104" priority="1" numLanes="2" speed="13.89"/>
    <edge id="-gneE299" from="gneJ291" to="gneJ290" priority="1" numLanes="2" speed="13.89"/>
    <edge id="-gneE3" from="gneJ5" to="gneJ6" priority="1" numLanes="1" speed="13.89"/>
    <edge id="-gneE300" from="gneJ292" to="gneJ273" priority="1" numLanes="2" speed="13.89"/>
    <edge id="-gneE310" from="gneJ301" to="gneJ291" priority="1" numLanes="2" speed="13.89"/>
    <edge id="-gneE311" from="gneJ302" to="gneJ301" priority="1" numLanes="2" speed="13.89"/>
    <edge id="-gneE312" from="gneJ303" to="gneJ302" priority="1" numLanes="2" speed="13.89"/>
    <edge id="-gneE313" from="gneJ304" to="gneJ303" priority="1" numLanes="2" speed="13.89"/>
    <edge id="-gneE314" from="gneJ292" to="gneJ304" priority="1" numLanes="2" speed="13.89"/>
    <edge id="-gneE32" from="gneJ31" to="gneJ30" priority="1" numLanes="2" speed="13.89"/>
    <edge id="-gneE33" from="gneJ32" to="gneJ31" priority="1" numLanes="2" speed="13.89"/>
    <edge id="-gneE34" from="gneJ33" to="gneJ32" priority="1" numLanes="2" speed="13.89"/>
    <edge id="-gneE35" from="gneJ35" to="gneJ34" priority="1" numLanes="2" speed="13.89"/>
    <edge id="-gneE355" from="gneJ344" to="gneJ343" priority="1" numLanes="1" speed="13.89"/>
    <edge id="-gneE356" from="gneJ345" to="gneJ344" priority="1" numLanes="1" speed="13.89"/>
    <edge id="-gneE357" from="gneJ346" to="gneJ345" priority="1" numLanes="1" speed="13.89"/>
    <edge id="-gneE358" from="gneJ347" to="gneJ346" priority="1" numLanes="1" speed="13.89"/>
    <edge id="-gneE359" from="gneJ343" to="gneJ347" priority="1" numLanes="1" speed="13.89"/>
    <edge id="-gneE360" from="gneJ349" to="gneJ348" priority="1" numLanes="1" speed="13.89"/>
    <edge id="-gneE361" from="gneJ350" to="gneJ349" priority="1" numLanes="1" speed="13.89"/>
    <edge id="-gneE362" from="gneJ351" to="gneJ350" priority="1" numLanes="1" speed="13.89"/>
    <edge id="-gneE363" from="gneJ352" to="gneJ351" priority="1" numLanes="1" speed="13.89"/>
    <edge id="-gneE364" from="gneJ348" to="gneJ352" priority="1" numLanes="1" speed="13.89"/>
    <edge id="-gneE365" from="gneJ353" to="gneJ292" priority="1" numLanes="1" speed="13.89"/>
    <edge id="-gneE366" from="gneJ288" to="gneJ353" priority="1" numLanes="1" speed="13.89"/>
    <edge id="-gneE367" from="gneJ354" to="gneJ353" priority="1" numLanes="1" speed="13.89"/>
    <edge id="-gneE368" from="gneJ104" to="gneJ354" priority="1" numLanes="1" speed="13.89"/>
    <edge id="-gneE369" from="gneJ180" to="gneJ176" priority="1" numLanes="2" speed="13.89"/>
    <edge id="-gneE370" from="gneJ355" to="gneJ176" priority="1" numLanes="1" speed="13.89"/>
    <edge id="-gneE371" from="gneJ356" to="gneJ355" priority="1" numLanes="1" speed="13.89"/>
    <edge id="-gneE372" from="gneJ180" to="gneJ356" priority="1" numLanes="1" speed="13.89"/>
    <edge id="-gneE373" from="gneJ357" to="gneJ97" priority="1" numLanes="1" speed="13.89"/>
    <edge id="-gneE374" from="gneJ358" to="gneJ357" priority="1" numLanes="1" speed="13.89"/>
    <edge id="-gneE375" from="gneJ273" to="gneJ358" priority="1" numLanes="1" speed="13.89"/>
    <edge id="-gneE376" from="gneJ360" to="gneJ359" priority="1" numLanes="1" speed="13.89"/>
    <edge id="-gneE377" from="gneJ361" to="gneJ360" priority="1" numLanes="1" speed="13.89"/>
    <edge id="-gneE378" from="gneJ362" to="gneJ361" priority="1" numLanes="1" speed="13.89"/>
    <edge id="-gneE379" from="gneJ363" to="gneJ362" priority="1" numLanes="1" speed="13.89"/>
    <edge id="-gneE38" from="gneJ38" to="gneJ37" priority="1" numLanes="2" speed="13.89"/>
    <edge id="-gneE380" from="gneJ359" to="gneJ363" priority="1" numLanes="1" speed="13.89"/>
    <edge id="-gneE381" from="gneJ365" to="gneJ364" priority="1" numLanes="1" speed="13.89"/>
    <edge id="-gneE382" from="gneJ366" to="gneJ365" priority="1" numLanes="1" speed="13.89"/>
    <edge id="-gneE383" from="gneJ367" to="gneJ366" priority="1" numLanes="1" speed="13.89"/>
    <edge id="-gneE384" from="gneJ368" to="gneJ367" priority="1" numLanes="1" speed="13.89"/>
    <edge id="-gneE385" from="gneJ364" to="gneJ368" priority="1" numLanes="1" speed="13.89"/>
    <edge id="-gneE386" from="gneJ370" to="gneJ369" priority="1" numLanes="1" speed="13.89"/>
    <edge id="-gneE387" from="gneJ371" to="gneJ370" priority="1" numLanes="1" speed="13.89"/>
    <edge id="-gneE388" from="gneJ372" to="gneJ371" priority="1" numLanes="1" speed="13.89"/>
    <edge id="-gneE389" from="gneJ373" to="gneJ372" priority="1" numLanes="1" speed="13.89"/>
    <edge id="-gneE39" from="gneJ39" to="gneJ38" priority="1" numLanes="2" speed="13.89"/>
    <edge id="-gneE390" from="gneJ369" to="gneJ373" priority="1" numLanes="1" speed="13.89"/>
    <edge id="-gneE391" from="gneJ365" to="gneJ91" priority="1" numLanes="1" speed="13.89"/>
    <edge id="-gneE392" from="gneJ366" to="gneJ93" priority="1" numLanes="1" speed="13.89"/>
    <edge id="-gneE394" from="gneJ343" to="gneJ174" priority="1" numLanes="1" speed="13.89"/>
    <edge id="-gneE395" from="gneJ366" to="gneJ343" priority="1" numLanes="1" speed="13.89"/>
    <edge id="-gneE396" from="gneJ347" to="gneJ367" priority="1" numLanes="1" speed="13.89"/>
    <edge id="-gneE397" from="gneJ359" to="gneJ364" priority="1" numLanes="1" speed="13.89"/>
    <edge id="-gneE398" from="gneJ363" to="gneJ368" priority="1" numLanes="1" speed="13.89"/>
    <edge id="-gneE399" from="gneJ86" to="gneJ360" priority="1" numLanes="1" speed="13.89"/>
    <edge id="-gneE4" from="gneJ8" to="gneJ2" priority="1" numLanes="1" speed="13.89"/>
    <edge id="-gneE40" from="gneJ40" to="gneJ39" priority="1" numLanes="2" speed="13.89"/>
    <edge id="-gneE400" from="gneJ90" to="gneJ361" priority="1" numLanes="1" speed="13.89"/>
    <edge id="-gneE401" from="gneJ369" to="gneJ363" priority="1" numLanes="1" speed="13.89"/>
    <edge id="-gneE402" from="gneJ347" to="gneJ369" priority="1" numLanes="1" speed="13.89"/>
    <edge id="-gneE403" from="gneJ101" to="gneJ346" priority="1" numLanes="1" speed="13.89"/>
    <edge id="-gneE404" from="gneJ101" to="gneJ370" priority="1" numLanes="1" speed="13.89"/>
    <edge id="-gneE405" from="gneJ362" to="gneJ373" priority="1" numLanes="1" speed="13.89"/>
    <edge id="-gneE406" from="gneJ344" to="gneJ355" priority="1" numLanes="1" speed="13.89"/>
    <edge id="-gneE407" from="gneJ348" to="gneJ345" priority="1" numLanes="1" speed="13.89"/>
    <edge id="-gneE408" from="gneJ355" to="gneJ349" priority="1" numLanes="1" speed="13.89"/>
    <edge id="-gneE409" from="gneJ350" to="gneJ356" priority="1" numLanes="1" speed="13.89"/>
    <edge id="-gneE41" from="gneJ41" to="gneJ40" priority="1" numLanes="2" speed="13.89"/>
    <edge id="-gneE410" from="gneJ109" to="gneJ352" priority="1" numLanes="1" speed="13.89"/>
    <edge id="-gneE411" from="gneJ357" to="gneJ356" priority="1" numLanes="1" speed="13.89"/>
    <edge id="-gneE412" from="gneJ288" to="gneJ358" priority="1" numLanes="1" speed="13.89"/>
    <edge id="-gneE413" from="gneJ289" to="gneJ351" priority="1" numLanes="1" speed="13.89"/>
    <edge id="-gneE414" from="gneJ374" to="gneJ372" priority="1" numLanes="1" speed="13.89"/>
    <edge id="-gneE415" from="gneJ99" to="gneJ374" priority="1" numLanes="1" speed="13.89"/>
    <edge id="-gneE416" from="gneJ79" to="gneJ88" priority="1" numLanes="1" speed="13.89"/>
    <edge id="-gneE417" from="gneJ376" to="gneJ88" priority="1" numLanes="1" speed="13.89"/>
    <edge id="-gneE418" from="gneJ78" to="gneJ376" priority="1" numLanes="1" speed="13.89"/>
    <edge id="-gneE419" from="gneJ79" to="gneJ75" priority="1" numLanes="1" speed="13.89"/>
    <edge id="-gneE42" from="gneJ42" to="gneJ41" priority="1" numLanes="1" speed="13.89"/>
    <edge id="-gneE420" from="gneJ377" to="gneJ78" priority="1" numLanes="1" speed="13.89"/>
    <edge id="-gneE422" from="gneJ377" to="gneJ75" priority="1" numLanes="1" speed="13.89"/>
    <edge id="-gneE423" from="gneJ109" to="gneJ100" priority="1" numLanes="2" speed="13.89"/>
    <edge id="-gneE424" from="gneJ89" to="gneJ373" priority="1" numLanes="1" speed="13.89"/>
    <edge id="-gneE425" from="gneJ378" to="gneJ89" priority="1" numLanes="1" speed="13.89"/>
    <edge id="-gneE426" from="gneJ379" to="gneJ378" priority="1" numLanes="1" speed="13.89"/>
    <edge id="-gneE427" from="gneJ372" to="gneJ379" priority="1" numLanes="1" speed="13.89"/>
    <edge id="-gneE428" from="gneJ380" to="gneJ374" priority="1" numLanes="1" speed="13.89"/>
    <edge id="-gneE429" from="gneJ381" to="gneJ380" priority="1" numLanes="1" speed="13.89"/>
    <edge id="-gneE43" from="gneJ43" to="gneJ41" priority="1" numLanes="2" speed="13.89"/>
    <edge id="-gneE430" from="gneJ88" to="gneJ381" priority="1" numLanes="1" speed="13.89"/>
    <edge id="-gneE431" from="gneJ381" to="gneJ378" priority="1" numLanes="1" speed="13.89"/>
    <edge id="-gneE432" from="gneJ382" to="gneJ87" priority="1" numLanes="1" speed="13.89"/>
    <edge id="-gneE433" from="gneJ381" to="gneJ382" priority="1" numLanes="1" speed="13.89"/>
    <edge id="-gneE434" from="gneJ383" to="gneJ378" priority="1" numLanes="1" speed="13.89"/>
    <edge id="-gneE435" from="gneJ382" to="gneJ383" priority="1" numLanes="1" speed="13.89"/>
    <edge id="-gneE436" from="gneJ384" to="gneJ82" priority="1" numLanes="1" speed="13.89"/>
    <edge id="-gneE437" from="gneJ385" to="gneJ384" priority="1" numLanes="1" speed="13.89"/>
    <edge id="-gneE438" from="gneJ73" to="gneJ385" priority="1" numLanes="1" speed="13.89"/>
    <edge id="-gneE439" from="gneJ386" to="gneJ384" priority="1" numLanes="1" speed="13.89"/>
    <edge id="-gneE44" from="gneJ44" to="gneJ43" priority="1" numLanes="2" speed="13.89"/>
    <edge id="-gneE440" from="gneJ386" to="gneJ85" priority="1" numLanes="1" speed="13.89"/>
    <edge id="-gneE441" from="gneJ387" to="gneJ385" priority="1" numLanes="1" speed="13.89"/>
    <edge id="-gneE442" from="gneJ84" to="gneJ387" priority="1" numLanes="1" speed="13.89"/>
    <edge id="-gneE443" from="gneJ388" to="gneJ386" priority="1" numLanes="1" speed="13.89"/>
    <edge id="-gneE444" from="gneJ90" to="gneJ388" priority="1" numLanes="1" speed="13.89"/>
    <edge id="-gneE445" from="gneJ385" to="gneJ388" priority="1" numLanes="1" speed="13.89"/>
    <edge id="-gneE446" from="gneJ389" to="gneJ388" priority="1" numLanes="1" speed="13.89"/>
    <edge id="-gneE447" from="gneJ387" to="gneJ389" priority="1" numLanes="1" speed="13.89"/>
    <edge id="-gneE448" from="gneJ383" to="gneJ389" priority="1" numLanes="1" speed="13.89"/>
    <edge id="-gneE449" from="gneJ390" to="gneJ387" priority="1" numLanes="1" speed="13.89"/>
    <edge id="-gneE45" from="gneJ45" to="gneJ44" priority="1" numLanes="2" speed="13.89"/>
    <edge id="-gneE450" from="gneJ382" to="gneJ390" priority="1" numLanes="1" speed="13.89"/>
    <edge id="-gneE452" from="gneJ391" to="gneJ81" priority="1" numLanes="1" speed="13.89"/>
    <edge id="-gneE453" from="gneJ392" to="gneJ391" priority="1" numLanes="1" speed="13.89"/>
    <edge id="-gneE454" from="gneJ80" to="gneJ392" priority="1" numLanes="1" speed="13.89"/>
    <edge id="-gneE457" from="gneJ71" to="gneJ393" priority="1" numLanes="2" speed="13.89"/>
    <edge id="-gneE458" from="gneJ73" to="gneJ393" priority="1" numLanes="2" speed="13.89"/>
    <edge id="-gneE459" from="gneJ50" to="gneJ49" priority="1" numLanes="1" speed="13.89"/>
    <edge id="-gneE46" from="gneJ47" to="gneJ46" priority="1" numLanes="1" speed="13.89"/>
    <edge id="-gneE460" from="gneJ34" to="gneJ53" priority="1" numLanes="1" speed="13.89"/>
    <edge id="-gneE462" from="gneJ394" to="gneJ12" priority="1" numLanes="1" speed="13.89"/>
    <edge id="-gneE463" from="gneJ395" to="gneJ394" priority="1" numLanes="1" speed="13.89"/>
    <edge id="-gneE464" from="gneJ396" to="gneJ395" priority="1" numLanes="1" speed="13.89"/>
    <edge id="-gneE465" from="gneJ10" to="gneJ396" priority="1" numLanes="1" speed="13.89"/>
    <edge id="-gneE466" from="gneJ56" to="gneJ396" priority="1" numLanes="1" speed="13.89"/>
    <edge id="-gneE467" from="gneJ3" to="gneJ395" priority="1" numLanes="1" speed="13.89"/>
    <edge id="-gneE468" from="gneJ69" to="gneJ20" priority="1" numLanes="1" speed="13.89"/>
    <edge id="-gneE469" from="gneJ397" to="gneJ71" priority="1" numLanes="2" speed="13.89"/>
    <edge id="-gneE47" from="gneJ48" to="gneJ47" priority="1" numLanes="1" speed="13.89"/>
    <edge id="-gneE471" from="gneJ398" to="gneJ397" priority="1" numLanes="2" speed="13.89"/>
    <edge id="-gneE472" from="gneJ72" to="gneJ398" priority="1" numLanes="2" speed="13.89"/>
    <edge id="-gneE473" from="gneJ399" to="gneJ37" priority="1" numLanes="2" speed="13.89"/>
    <edge id="-gneE474" from="gneJ35" to="gneJ399" priority="1" numLanes="2" speed="13.89"/>
    <edge id="-gneE475" from="gneJ57" to="gneJ34" priority="1" numLanes="1" speed="13.89"/>
    <edge id="-gneE476" from="gneJ399" to="gneJ72" priority="1" numLanes="1" speed="13.89"/>
    <edge id="-gneE477" from="gneJ400" to="gneJ87" priority="1" numLanes="1" speed="13.89"/>
    <edge id="-gneE478" from="gneJ401" to="gneJ400" priority="1" numLanes="1" speed="13.89"/>
    <edge id="-gneE479" from="gneJ39" to="gneJ401" priority="1" numLanes="1" speed="13.89"/>
    <edge id="-gneE48" from="gneJ42" to="gneJ48" priority="1" numLanes="1" speed="13.89"/>
    <edge id="-gneE480" from="gneJ402" to="gneJ400" priority="1" numLanes="1" speed="13.89"/>
    <edge id="-gneE481" from="gneJ403" to="gneJ402" priority="1" numLanes="1" speed="13.89"/>
    <edge id="-gneE482" from="gneJ40" to="gneJ403" priority="1" numLanes="1" speed="13.89"/>
    <edge id="-gneE483" from="gneJ404" to="gneJ402" priority="1" numLanes="1" speed="13.89"/>
    <edge id="-gneE484" from="gneJ405" to="gneJ403" priority="1" numLanes="1" speed="13.89"/>
    <edge id="-gneE485" from="gneJ43" to="gneJ405" priority="1" numLanes="1" speed="13.89"/>
    <edge id="-gneE486" from="gneJ75" to="gneJ405" priority="1" numLanes="1" speed="13.89"/>
    <edge id="-gneE487" from="gneJ79" to="gneJ404" priority="1" numLanes="1" speed="13.89"/>
    <edge id="-gneE488" from="gneJ406" to="gneJ44" priority="1" numLanes="1" speed="13.89"/>
    <edge id="-gneE489" from="gneJ407" to="gneJ74" priority="1" numLanes="1" speed="13.89"/>
    <edge id="-gneE49" from="gneJ49" to="gneJ48" priority="1" numLanes="1" speed="13.89"/>
    <edge id="-gneE490" from="gneJ406" to="gneJ407" priority="1" numLanes="1" speed="13.89"/>
    <edge id="-gneE491" from="gneJ408" to="gneJ406" priority="1" numLanes="1" speed="13.89"/>
    <edge id="-gneE492" from="gneJ33" to="gneJ408" priority="1" numLanes="1" speed="13.89"/>
    <edge id="-gneE493" from="gneJ67" to="gneJ408" priority="1" numLanes="1" speed="13.89"/>
    <edge id="-gneE494" from="gneJ409" to="gneJ408" priority="1" numLanes="1" speed="13.89"/>
    <edge id="-gneE495" from="gneJ68" to="gneJ409" priority="1" numLanes="1" speed="13.89"/>
    <edge id="-gneE496" from="gneJ410" to="gneJ69" priority="1" numLanes="1" speed="13.89"/>
    <edge id="-gneE497" from="gneJ411" to="gneJ410" priority="1" numLanes="1" speed="13.89"/>
    <edge id="-gneE499" from="gneJ412" to="gneJ411" priority="1" numLanes="1" speed="13.89"/>
    <edge id="-gneE5" from="gneJ9" to="gneJ8" priority="1" numLanes="1" speed="13.89"/>
    <edge id="-gneE50" from="gneJ51" to="gneJ50" priority="1" numLanes="1" speed="13.89"/>
    <edge id="-gneE500" from="gneJ18" to="gneJ412" priority="1" numLanes="1" speed="13.89"/>
    <edge id="-gneE501" from="gneJ413" to="gneJ107" priority="1" numLanes="1" speed="13.89"/>
    <edge id="-gneE502" from="gneJ414" to="gneJ413" priority="1" numLanes="1" speed="13.89"/>
    <edge id="-gneE503" from="gneJ99" to="gneJ414" priority="1" numLanes="1" speed="13.89"/>
    <edge id="-gneE504" from="gneJ415" to="gneJ414" priority="1" numLanes="1" speed="13.89"/>
    <edge id="-gneE505" from="gneJ106" to="gneJ415" priority="1" numLanes="1" speed="13.89"/>
    <edge id="-gneE506" from="gneJ376" to="gneJ415" priority="1" numLanes="1" speed="13.89"/>
    <edge id="-gneE507" from="gneJ416" to="gneJ77" priority="1" numLanes="1" speed="13.89"/>
    <edge id="-gneE508" from="gneJ111" to="gneJ416" priority="1" numLanes="1" speed="13.89"/>
    <edge id="-gneE509" from="gneJ418" to="gneJ113" priority="1" numLanes="1" speed="13.89"/>
    <edge id="-gneE51" from="gneJ52" to="gneJ51" priority="1" numLanes="1" speed="13.89"/>
    <edge id="-gneE510" from="gneJ419" to="gneJ418" priority="1" numLanes="1" speed="13.89"/>
    <edge id="-gneE511" from="gneJ420" to="gneJ418" priority="1" numLanes="1" speed="13.89"/>
    <edge id="-gneE512" from="gneJ421" to="gneJ416" priority="1" numLanes="1" speed="13.89"/>
    <edge id="-gneE513" from="gneJ420" to="gneJ421" priority="1" numLanes="1" speed="13.89"/>
    <edge id="-gneE514" from="gneJ422" to="gneJ419" priority="1" numLanes="1" speed="13.89"/>