<!--
	This code was autogenerated using gridgen.py
	Total Edges = 2964
-->
<edges>
	<edge id="edge0" from="cell0_0" to="cell1_1" priority="1" numLanes="1" speed="25.0"/>
	<edge id="edge1" from="cell0_0" to="cell0_1" priority="1" numLanes="1" speed="25.0"/>
	<edge id="edge2" from="cell0_0" to="cell1_0" priority="1" numLanes="1" speed="25.0"/>
	<edge id="edge3" from="cell0_1" to="cell1_0" priority="1" numLanes="1" speed="25.0"/>
	<edge id="edge4" from="cell0_1" to="cell1_2" priority="1" numLanes="1" speed="25.0"/>
	<edge id="edge5" from="cell0_1" to="cell0_2" priority="1" numLanes="1" speed="25.0"/>
	<edge id="edge6" from="cell0_1" to="cell1_1" priority="1" numLanes="1" speed="25.0"/>
	<edge id="edge7" from="cell0_1" to="cell0_0" priority="1" numLanes="1" speed="25.0"/>
	<edge id="edge8" from="cell0_2" to="cell1_1" priority="1" numLanes="1" speed="25.0"/>
	<edge id="edge9" from="cell0_2" to="cell1_3" priority="1" numLanes="1" speed="25.0"/>
	<edge id="edge10" from="cell0_2" to="cell0_3" priority="1" numLanes="1" speed="25.0"/>
	<edge id="edge11" from="cell0_2" to="cell1_2" priority="1" numLanes="1" speed="25.0"/>
	<edge id="edge12" from="cell0_2" to="cell0_1" priority="1" numLanes="1" speed="25.0"/>
	<edge id="edge13" from="cell0_3" to="cell1_2" priority="1" numLanes="1" speed="25.0"/>
	<edge id="edge14" from="cell0_3" to="cell1_4" priority="1" numLanes="1" speed="25.0"/>
	<edge id="edge15" from="cell0_3" to="cell0_4" priority="1" numLanes="1" speed="25.0"/>
	<edge id="edge16" from="cell0_3" to="cell1_3" priority="1" numLanes="1" speed="25.0"/>
	<edge id="edge17" from="cell0_3" to="cell0_2" priority="1" numLanes="1" speed="25.0"/>
	<edge id="edge18" from="cell0_4" to="cell1_3" priority="1" numLanes="1" speed="25.0"/>
	<edge id="edge19" from="cell0_4" to="cell1_5" priority="1" numLanes="1" speed="25.0"/>
	<edge id="edge20" from="cell0_4" to="cell0_5" priority="1" numLanes="1" speed="25.0"/>
	<edge id="edge21" from="cell0_4" to="cell1_4" priority="1" numLanes="1" speed="25.0"/>
	<edge id="edge22" from="cell0_4" to="cell0_3" priority="1" numLanes="1" speed="25.0"/>
	<edge id="edge23" from="cell0_5" to="cell1_4" priority="1" numLanes="1" speed="25.0"/>
	<edge id="edge24" from="cell0_5" to="cell1_6" priority="1" numLanes="1" speed="25.0"/>
	<edge id="edge25" from="cell0_5" to="cell0_6" priority="1" numLanes="1" speed="25.0"/>
	<edge id="edge26" from="cell0_5" to="cell1_5" priority="1" numLanes="1" speed="25.0"/>
	<edge id="edge27" from="cell0_5" to="cell0_4" priority="1" numLanes="1" speed="25.0"/>
	<edge id="edge28" from="cell0_6" to="cell1_5" priority="1" numLanes="1" speed="25.0"/>
	<edge id="edge29" from="cell0_6" to="cell1_7" priority="1" numLanes="1" speed="25.0"/>
	<edge id="edge30" from="cell0_6" to="cell0_7" priority="1" numLanes="1" speed="25.0"/>
	<edge id="edge31" from="cell0_6" to="cell1_6" priority="1" numLanes="1" speed="25.0"/>
	<edge id="edge32" from="cell0_6" to="cell0_5" priority="1" numLanes="1" speed="25.0"/>
	<edge id="edge33" from="cell0_7" to="cell1_6" priority="1" numLanes="1" speed="25.0"/>
	<edge id="edge34" from="cell0_7" to="cell1_8" priority="1" numLanes="1" speed="25.0"/>
	<edge id="edge35" from="cell0_7" to="cell0_8" priority="1" numLanes="1" speed="25.0"/>
	<edge id="edge36" from="cell0_7" to="cell1_7" priority="1" numLanes="1" speed="25.0"/>
	<edge id="edge37" from="cell0_7" to="cell0_6" priority="1" numLanes="1" speed="25.0"/>
	<edge id="edge38" from="cell0_8" to="cell1_7" priority="1" numLanes="1" speed="25.0"/>
	<edge id="edge39" from="cell0_8" to="cell1_9" priority="1" numLanes="1" speed="25.0"/>
	<edge id="edge40" from="cell0_8" to="cell0_9" priority="1" numLanes="1" speed="25.0"/>
	<edge id="edge41" from="cell0_8" to="cell1_8" priority="1" numLanes="1" speed="25.0"/>
	<edge id="edge42" from="cell0_8" to="cell0_7" priority="1" numLanes="1" speed="25.0"/>
	<edge id="edge43" from="cell0_9" to="cell1_8" priority="1" numLanes="1" speed="25.0"/>
	<edge id="edge44" from="cell0_9" to="cell1_10" priority="1" numLanes="1" speed="25.0"/>
	<edge id="edge45" from="cell0_9" to="cell0_10" priority="1" numLanes="1" speed="25.0"/>
	<edge id="edge46" from="cell0_9" to="cell1_9" priority="1" numLanes="1" speed="25.0"/>
	<edge id="edge47" from="cell0_9" to="cell0_8" priority="1" numLanes="1" speed="25.0"/>
	<edge id="edge48" from="cell0_10" to="cell1_9" priority="1" numLanes="1" speed="25.0"/>
	<edge id="edge49" from="cell0_10" to="cell1_11" priority="1" numLanes="1" speed="25.0"/>
	<edge id="edge50" from="cell0_10" to="cell0_11" priority="1" numLanes="1" speed="25.0"/>
	<edge id="edge51" from="cell0_10" to="cell1_10" priority="1" numLanes="1" speed="25.0"/>
	<edge id="edge52" from="cell0_10" to="cell0_9" priority="1" numLanes="1" speed="25.0"/>
	<edge id="edge53" from="cell0_11" to="cell1_10" priority="1" numLanes="1" speed="25.0"/>
	<edge id="edge54" from="cell0_11" to="cell1_12" priority="1" numLanes="1" speed="25.0"/>
	<edge id="edge55" from="cell0_11" to="cell0_12" priority="1" numLanes="1" speed="25.0"/>
	<edge id="edge56" from="cell0_11" to="cell1_11" priority="1" numLanes="1" speed="25.0"/>
	<edge id="edge57" from="cell0_11" to="cell0_10" priority="1" numLanes="1" speed="25.0"/>
	<edge id="edge58" from="cell0_12" to="cell1_11" priority="1" numLanes="1" speed="25.0"/>
	<edge id="edge59" from="cell0_12" to="cell1_13" priority="1" numLanes="1" speed="25.0"/>
	<edge id="edge60" from="cell0_12" to="cell0_13" priority="1" numLanes="1" speed="25.0"/>
	<edge id="edge61" from="cell0_12" to="cell1_12" priority="1" numLanes="1" speed="25.0"/>
	<edge id="edge62" from="cell0_12" to="cell0_11" priority="1" numLanes="1" speed="25.0"/>
	<edge id="edge63" from="cell0_13" to="cell1_12" priority="1" numLanes="1" speed="25.0"/>
	<edge id="edge64" from="cell0_13" to="cell1_14" priority="1" numLanes="1" speed="25.0"/>
	<edge id="edge65" from="cell0_13" to="cell0_14" priority="1" numLanes="1" speed="25.0"/>
	<edge id="edge66" from="cell0_13" to="cell1_13" priority="1" numLanes="1" speed="25.0"/>
	<edge id="edge67" from="cell0_13" to="cell0_12" priority="1" numLanes="1" speed="25.0"/>
	<edge id="edge68" from="cell0_14" to="cell1_13" priority="1" numLanes="1" speed="25.0"/>
	<edge id="edge69" from="cell0_14" to="cell1_15" priority="1" numLanes="1" speed="25.0"/>
	<edge id="edge70" from="cell0_14" to="cell0_15" priority="1" numLanes="1" speed="25.0"/>
	<edge id="edge71" from="cell0_14" to="cell1_14" priority="1" numLanes="1" speed="25.0"/>
	<edge id="edge72" from="cell0_14" to="cell0_13" priority="1" numLanes="1" speed="25.0"/>
	<edge id="edge73" from="cell0_15" to="cell1_14" priority="1" numLanes="1" speed="25.0"/>
	<edge id="edge74" from="cell0_15" to="cell1_16" priority="1" numLanes="1" speed="25.0"/>
	<edge id="edge75" from="cell0_15" to="cell0_16" priority="1" numLanes="1" speed="25.0"/>
	<edge id="edge76" from="cell0_15" to="cell1_15" priority="1" numLanes="1" speed="25.0"/>
	<edge id="edge77" from="cell0_15" to="cell0_14" priority="1" numLanes="1" speed="25.0"/>
	<edge id="edge78" from="cell0_16" to="cell1_15" priority="1" numLanes="1" speed="25.0"/>
	<edge id="edge79" from="cell0_16" to="cell1_17" priority="1" numLanes="1" speed="25.0"/>
	<edge id="edge80" from="cell0_16" to="cell0_17" priority="1" numLanes="1" speed="25.0"/>
	<edge id="edge81" from="cell0_16" to="cell1_16" priority="1" numLanes="1" speed="25.0"/>
	<edge id="edge82" from="cell0_16" to="cell0_15" priority="1" numLanes="1" speed="25.0"/>
	<edge id="edge83" from="cell0_17" to="cell1_16" priority="1" numLanes="1" speed="25.0"/>
	<edge id="edge84" from="cell0_17" to="cell1_18" priority="1" numLanes="1" speed="25.0"/>
	<edge id="edge85" from="cell0_17" to="cell0_18" priority="1" numLanes="1" speed="25.0"/>
	<edge id="edge86" from="cell0_17" to="cell1_17" priority="1" numLanes="1" speed="25.0"/>
	<edge id="edge87" from="cell0_17" to="cell0_16" priority="1" numLanes="1" speed="25.0"/>
	<edge id="edge88" from="cell0_18" to="cell1_17" priority="1" numLanes="1" speed="25.0"/>
	<edge id="edge89" from="cell0_18" to="cell1_19" priority="1" numLanes="1" speed="25.0"/>
	<edge id="edge90" from="cell0_18" to="cell0_19" priority="1" numLanes="1" speed="25.0"/>
	<edge id="edge91" from="cell0_18" to="cell1_18" priority="1" numLanes="1" speed="25.0"/>
	<edge id="edge92" from="cell0_18" to="cell0_17" priority="1" numLanes="1" speed="25.0"/>
	<edge id="edge93" from="cell0_19" to="cell1_18" priority="1" numLanes="1" speed="25.0"/>
	<edge id="edge94" from="cell0_19" to="cell1_19" priority="1" numLanes="1" speed="25.0"/>
	<edge id="edge95" from="cell0_19" to="cell0_18" priority="1" numLanes="1" speed="25.0"/>
	<edge id="edge96" from="cell1_0" to="cell0_1" priority="1" numLanes="1" speed="25.0"/>
	<edge id="edge97" from="cell1_0" to="cell2_1" priority="1" numLanes="1" speed="25.0"/>
	<edge id="edge98" from="cell1_0" to="cell1_1" priority="1" numLanes="1" speed="25.0"/>
	<edge id="edge99" from="cell1_0" to="cell2_0" priority="1" numLanes="1" speed="25.0"/>
	<edge id="edge100" from="cell1_0" to="cell0_0" priority="1" numLanes="1" speed="25.0"/>
	<edge id="edge101" from="cell1_1" to="cell0_0" priority="1" numLanes="1" speed="25.0"/>
	<edge id="edge102" from="cell1_1" to="cell0_2" priority="1" numLanes="1" speed="25.0"/>
	<edge id="edge103" from="cell1_1" to="cell2_0" priority="1" numLanes="1" speed="25.0"/>
	<edge id="edge104" from="cell1_1" to="cell2_2" priority="1" numLanes="1" speed="25.0"/>
	<edge id="edge105" from="cell1_1" to="cell1_2" priority="1" numLanes="1" speed="25.0"/>
	<edge id="edge106" from="cell1_1" to="cell2_1" priority="1" numLanes="1" speed="25.0"/>
	<edge id="edge107" from="cell1_1" to="cell0_1" priority="1" numLanes="1" speed="25.0"/>
	<edge id="edge108" from="cell1_1" to="cell1_0" priority="1" numLanes="1" speed="25.0"/>
	<edge id="edge109" from="cell1_2" to="cell0_1" priority="1" numLanes="1" speed="25.0"/>
	<edge id="edge110" from="cell1_2" to="cell0_3" priority="1" numLanes="1" speed="25.0"/>
	<edge id="edge111" from="cell1_2" to="cell2_1" priority="1" numLanes="1" speed="25.0"/>
	<edge id="edge112" from="cell1_2" to="cell2_3" priority="1" numLanes="1" speed="25.0"/>
	<edge id="edge113" from="cell1_2" to="cell1_3" priority="1" numLanes="1" speed="25.0"/>
	<edge id="edge114" from="cell1_2" to="cell2_2" priority="1" numLanes="1" speed="25.0"/>
	<edge id="edge115" from="cell1_2" to="cell0_2" priority="1" numLanes="1" speed="25.0"/>
	<edge id="edge116" from="cell1_2" to="cell1_1" priority="1" numLanes="1" speed="25.0"/>
	<edge id="edge117" from="cell1_3" to="cell0_2" priority="1" numLanes="1" speed="25.0"/>
	<edge id="edge118" from="cell1_3" to="cell0_4" priority="1" numLanes="1" speed="25.0"/>
	<edge id="edge119" from="cell1_3" to="cell2_2" priority="1" numLanes="1" speed="25.0"/>
	<edge id="edge120" from="cell1_3" to="cell2_4" priority="1" numLanes="1" speed="25.0"/>
	<edge id="edge121" from="cell1_3" to="cell1_4" priority="1" numLanes="1" speed="25.0"/>
	<edge id="edge122" from="cell1_3" to="cell2_3" priority="1" numLanes="1" speed="25.0"/>
	<edge id="edge123" from="cell1_3" to="cell0_3" priority="1" numLanes="1" speed="25.0"/>
	<edge id="edge124" from="cell1_3" to="cell1_2" priority="1" numLanes="1" speed="25.0"/>
	<edge id="edge125" from="cell1_4" to="cell0_3" priority="1" numLanes="1" speed="25.0"/>
	<edge id="edge126" from="cell1_4" to="cell0_5" priority="1" numLanes="1" speed="25.0"/>
	<edge id="edge127" from="cell1_4" to="cell2_3" priority="1" numLanes="1" speed="25.0"/>
	<edge id="edge128" from="cell1_4" to="cell2_5" priority="1" numLanes="1" speed="25.0"/>
	<edge id="edge129" from="cell1_4" to="cell1_5" priority="1" numLanes="1" speed="25.0"/>
	<edge id="edge130" from="cell1_4" to="cell2_4" priority="1" numLanes="1" speed="25.0"/>
	<edge id="edge131" from="cell1_4" to="cell0_4" priority="1" numLanes="1" speed="25.0"/>
	<edge id="edge132" from="cell1_4" to="cell1_3" priority="1" numLanes="1" speed="25.0"/>
	<edge id="edge133" from="cell1_5" to="cell0_4" priority="1" numLanes="1" speed="25.0"/>
	<edge id="edge134" from="cell1_5" to="cell0_6" priority="1" numLanes="1" speed="25.0"/>
	<edge id="edge135" from="cell1_5" to="cell2_4" priority="1" numLanes="1" speed="25.0"/>
	<edge id="edge136" from="cell1_5" to="cell2_6" priority="1" numLanes="1" speed="25.0"/>
	<edge id="edge137" from="cell1_5" to="cell1_6" priority="1" numLanes="1" speed="25.0"/>
	<edge id="edge138" from="cell1_5" to="cell2_5" priority="1" numLanes="1" speed="25.0"/>
	<edge id="edge139" from="cell1_5" to="cell0_5" priority="1" numLanes="1" speed="25.0"/>
	<edge id="edge140" from="cell1_5" to="cell1_4" priority="1" numLanes="1" speed="25.0"/>
	<edge id="edge141" from="cell1_6" to="cell0_5" priority="1" numLanes="1" speed="25.0"/>
	<edge id="edge142" from="cell1_6" to="cell0_7" priority="1" numLanes="1" speed="25.0"/>
	<edge id="edge143" from="cell1_6" to="cell2_5" priority="1" numLanes="1" speed="25.0"/>
	<edge id="edge144" from="cell1_6" to="cell2_7" priority="1" numLanes="1" speed="25.0"/>
	<edge id="edge145" from="cell1_6" to="cell1_7" priority="1" numLanes="1" speed="25.0"/>
	<edge id="edge146" from="cell1_6" to="cell2_6" priority="1" numLanes="1" speed="25.0"/>
	<edge id="edge147" from="cell1_6" to="cell0_6" priority="1" numLanes="1" speed="25.0"/>
	<edge id="edge148" from="cell1_6" to="cell1_5" priority="1" numLanes="1" speed="25.0"/>
	<edge id="edge149" from="cell1_7" to="cell0_6" priority="1" numLanes="1" speed="25.0"/>
	<edge id="edge150" from="cell1_7" to="cell0_8" priority="1" numLanes="1" speed="25.0"/>
	<edge id="edge151" from="cell1_7" to="cell2_6" priority="1" numLanes="1" speed="25.0"/>
	<edge id="edge152" from="cell1_7" to="cell2_8" priority="1" numLanes="1" speed="25.0"/>
	<edge id="edge153" from="cell1_7" to="cell1_8" priority="1" numLanes="1" speed="25.0"/>
	<edge id="edge154" from="cell1_7" to="cell2_7" priority="1" numLanes="1" speed="25.0"/>
	<edge id="edge155" from="cell1_7" to="cell0_7" priority="1" numLanes="1" speed="25.0"/>
	<edge id="edge156" from="cell1_7" to="cell1_6" priority="1" numLanes="1" speed="25.0"/>
	<edge id="edge157" from="cell1_8" to="cell0_7" priority="1" numLanes="1" speed="25.0"/>
	<edge id="edge158" from="cell1_8" to="cell0_9" priority="1" numLanes="1" speed="25.0"/>
	<edge id="edge159" from="cell1_8" to="cell2_7" priority="1" numLanes="1" speed="25.0"/>
	<edge id="edge160" from="cell1_8" to="cell2_9" priority="1" numLanes="1" speed="25.0"/>
	<edge id="edge161" from="cell1_8" to="cell1_9" priority="1" numLanes="1" speed="25.0"/>
	<edge id="edge162" from="cell1_8" to="cell2_8" priority="1" numLanes="1" speed="25.0"/>
	<edge id="edge163" from="cell1_8" to="cell0_8" priority="1" numLanes="1" speed="25.0"/>
	<edge id="edge164" from="cell1_8" to="cell1_7" priority="1" numLanes="1" speed="25.0"/>
	<edge id="edge165" from="cell1_9" to="cell0_8" priority="1" numLanes="1" speed="25.0"/>
	<edge id="edge166" from="cell1_9" to="cell0_10" priority="1" numLanes="1" speed="25.0"/>
	<edge id="edge167" from="cell1_9" to="cell2_8" priority="1" numLanes="1" speed="25.0"/>
	<edge id="edge168" from="cell1_9" to="cell2_10" priority="1" numLanes="1" speed="25.0"/>
	<edge id="edge169" from="cell1_9" to="cell1_10" priority="1" numLanes="1" speed="25.0"/>
	<edge id="edge170" from="cell1_9" to="cell2_9" priority="1" numLanes="1" speed="25.0"/>
	<edge id="edge171" from="cell1_9" to="cell0_9" priority="1" numLanes="1" speed="25.0"/>
	<edge id="edge172" from="cell1_9" to="cell1_8" priority="1" numLanes="1" speed="25.0"/>
	<edge id="edge173" from="cell1_10" to="cell0_9" priority="1" numLanes="1" speed="25.0"/>
	<edge id="edge174" from="cell1_10" to="cell0_11" priority="1" numLanes="1" speed="25.0"/>
	<edge id="edge175" from="cell1_10" to="cell2_9" priority="1" numLanes="1" speed="25.0"/>
	<edge id="edge176" from="cell1_10" to="cell2_11" priority="1" numLanes="1" speed="25.0"/>
	<edge id="edge177" from="cell1_10" to="cell1_11" priority="1" numLanes="1" speed="25.0"/>
	<edge id="edge178" from="cell1_10" to="cell2_10" priority="1" numLanes="1" speed="25.0"/>
	<edge id="edge179" from="cell1_10" to="cell0_10" priority="1" numLanes="1" speed="25.0"/>
	<edge id="edge180" from="cell1_10" to="cell1_9" priority="1" numLanes="1" speed="25.0"/>
	<edge id="edge181" from="cell1_11" to="cell0_10" priority="1" numLanes="1" speed="25.0"/>
	<edge id="edge182" from="cell1_11" to="cell0_12" priority="1" numLanes="1" speed="25.0"/>
	<edge id="edge183" from="cell1_11" to="cell2_10" priority="1" numLanes="1" speed="25.0"/>
	<edge id="edge184" from="cell1_11" to="cell2_12" priority="1" numLanes="1" speed="25.0"/>
	<edge id="edge185" from="cell1_11" to="cell1_12" priority="1" numLanes="1" speed="25.0"/>
	<edge id="edge186" from="cell1_11" to="cell2_11" priority="1" numLanes="1" speed="25.0"/>
	<edge id="edge187" from="cell1_11" to="cell0_11" priority="1" numLanes="1" speed="25.0"/>
	<edge id="edge188" from="cell1_11" to="cell1_10" priority="1" numLanes="1" speed="25.0"/>
	<edge id="edge189" from="cell1_12" to="cell0_11" priority="1" numLanes="1" speed="25.0"/>
	<edge id="edge190" from="cell1_12" to="cell0_13" priority="1" numLanes="1" speed="25.0"/>
	<edge id="edge191" from="cell1_12" to="cell2_11" priority="1" numLanes="1" speed="25.0"/>
	<edge id="edge192" from="cell1_12" to="cell2_13" priority="1" numLanes="1" speed="25.0"/>
	<edge id="edge193" from="cell1_12" to="cell1_13" priority="1" numLanes="1" speed="25.0"/>
	<edge id="edge194" from="cell1_12" to="cell2_12" priority="1" numLanes="1" speed="25.0"/>
	<edge id="edge195" from="cell1_12" to="cell0_12" priority="1" numLanes="1" speed="25.0"/>
	<edge id="edge196" from="cell1_12" to="cell1_11" priority="1" numLanes="1" speed="25.0"/>
	<edge id="edge197" from="cell1_13" to="cell0_12" priority="1" numLanes="1" speed="25.0"/>
	<edge id="edge198" from="cell1_13" to="cell0_14" priority="1" numLanes="1" speed="25.0"/>
	<edge id="edge199" from="cell1_13" to="cell2_12" priority="1" numLanes="1" speed="25.0"/>
	<edge id="edge200" from="cell1_13" to="cell2_14" priority="1" numLanes="1" speed="25.0"/>
	<edge id="edge201" from="cell1_13" to="cell1_14" priority="1" numLanes="1" speed="25.0"/>
	<edge id="edge202" from="cell1_13" to="cell2_13" priority="1" numLanes="1" speed="25.0"/>
	<edge id="edge203" from="cell1_13" to="cell0_13" priority="1" numLanes="1" speed="25.0"/>
	<edge id="edge204" from="cell1_13" to="cell1_12" priority="1" numLanes="1" speed="25.0"/>
	<edge id="edge205" from="cell1_14" to="cell0_13" priority="1" numLanes="1" speed="25.0"/>
	<edge id="edge206" from="cell1_14" to="cell0_15" priority="1" numLanes="1" speed="25.0"/>
	<edge id="edge207" from="cell1_14" to="cell2_13" priority="1" numLanes="1" speed="25.0"/>
	<edge id="edge208" from="cell1_14" to="cell2_15" priority="1" numLanes="1" speed="25.0"/>
	<edge id="edge209" from="cell1_14" to="cell1_15" priority="1" numLanes="1" speed="25.0"/>
	<edge id="edge210" from="cell1_14" to="cell2_14" priority="1" numLanes="1" speed="25.0"/>
	<edge id="edge211" from="cell1_14" to="cell0_14" priority="1" numLanes="1" speed="25.0"/>
	<edge id="edge212" from="cell1_14" to="cell1_13" priority="1" numLanes="1" speed="25.0"/>
	<edge id="edge213" from="cell1_15" to="cell0_14" priority="1" numLanes="1" speed="25.0"/>
	<edge id="edge214" from="cell1_15" to="cell0_16" priority="1" numLanes="1" speed="25.0"/>
	<edge id="edge215" from="cell1_15" to="cell2_14" priority="1" numLanes="1" speed="25.0"/>
	<edge id="edge216" from="cell1_15" to="cell2_16" priority="1" numLanes="1" speed="25.0"/>
	<edge id="edge217" from="cell1_15" to="cell1_16" priority="1" numLanes="1" speed="25.0"/>
	<edge id="edge218" from="cell1_15" to="cell2_15" priority="1" numLanes="1" speed="25.0"/>
	<edge id="edge219" from="cell1_15" to="cell0_15" priority="1" numLanes="1" speed="25.0"/>
	<edge id="edge220" from="cell1_15" to="cell1_14" priority="1" numLanes="1" speed="25.0"/>
	<edge id="edge221" from="cell1_16" to="cell0_15" priority="1" numLanes="1" speed="25.0"/>
	<edge id="edge222" from="cell1_16" to="cell0_17" priority="1" numLanes="1" speed="25.0"/>
	<edge id="edge223" from="cell1_16" to="cell2_15" priority="1" numLanes="1" speed="25.0"/>
	<edge id="edge224" from="cell1_16" to="cell2_17" priority="1" numLanes="1" speed="25.0"/>
	<edge id="edge225" from="cell1_16" to="cell1_17" priority="1" numLanes="1" speed="25.0"/>
	<edge id="edge226" from="cell1_16" to="cell2_16" priority="1" numLanes="1" speed="25.0"/>
	<edge id="edge227" from="cell1_16" to="cell0_16" priority="1" numLanes="1" speed="25.0"/>
	<edge id="edge228" from="cell1_16" to="cell1_15" priority="1" numLanes="1" speed="25.0"/>
	<edge id="edge229" from="cell1_17" to="cell0_16" priority="1" numLanes="1" speed="25.0"/>
	<edge id="edge230" from="cell1_17" to="cell0_18" priority="1" numLanes="1" speed="25.0"/>
	<edge id="edge231" from="cell1_17" to="cell2_16" priority="1" numLanes="1" speed="25.0"/>
	<edge id="edge232" from="cell1_17" to="cell2_18" priority="1" numLanes="1" speed="25.0"/>
	<edge id="edge233" from="cell1_17" to="cell1_18" priority="1" numLanes="1" speed="25.0"/>
	<edge id="edge234" from="cell1_17" to="cell2_17" priority="1" numLanes="1" speed="25.0"/>
	<edge id="edge235" from="cell1_17" to="cell0_17" priority="1" numLanes="1" speed="25.0"/>
	<edge id="edge236" from="cell1_17" to="cell1_16" priority="1" numLanes="1" speed="25.0"/>
	<edge id="edge237" from="cell1_18" to="cell0_17" priority="1" numLanes="1" speed="25.0"/>
	<edge id="edge238" from="cell1_18" to="cell0_19" priority="1" numLanes="1" speed="25.0"/>
	<edge id="edge239" from="cell1_18" to="cell2_17" priority="1" numLanes="1" speed="25.0"/>
	<edge id="edge240" from="cell1_18" to="cell2_19" priority="1" numLanes="1" speed="25.0"/>
	<edge id="edge241" from="cell1_18" to="cell1_19" priority="1" numLanes="1" speed="25.0"/>
	<edge id="edge242" from="cell1_18" to="cell2_18" priority="1" numLanes="1" speed="25.0"/>
	<edge id="edge243" from="cell1_18" to="cell0_18" priority="1" numLanes="1" speed="25.0"/>
	<edge id="edge244" from="cell1_18" to="cell1_17" priority="1" numLanes="1" speed="25.0"/>
	<edge id="edge245" from="cell1_19" to="cell0_18" priority="1" numLanes="1" speed="25.0"/>
	<edge id="edge246" from="cell1_19" to="cell2_18" priority="1" numLanes="1" speed="25.0"/>
	<edge id="edge247" from="cell1_19" to="cell2_19" priority="1" numLanes="1" speed="25.0"/>
	<edge id="edge248" from="cell1_19" to="cell0_19" priority="1" numLanes="1" speed="25.0"/>
	<edge id="edge249" from="cell1_19" to="cell1_18" priority="1" numLanes="1" speed="25.0"/>
	<edge id="edge250" from="cell2_0" to="cell1_1" priority="1" numLanes="1" speed="25.0"/>
	<edge id="edge251" from="cell2_0" to="cell3_1" priority="1" numLanes="1" speed="25.0"/>
	<edge id="edge252" from="cell2_0" to="cell2_1" priority="1" numLanes="1" speed="25.0"/>
	<edge id="edge253" from="cell2_0" to="cell3_0" priority="1" numLanes="1" speed="25.0"/>
	<edge id="edge254" from="cell2_0" to="cell1_0" priority="1" numLanes="1" speed="25.0"/>
	<edge id="edge255" from="cell2_1" to="cell1_0" priority="1" numLanes="1" speed="25.0"/>
	<edge id="edge256" from="cell2_1" to="cell1_2" priority="1" numLanes="1" speed="25.0"/>
	<edge id="edge257" from="cell2_1" to="cell3_0" priority="1" numLanes="1" speed="25.0"/>
	<edge id="edge258" from="cell2_1" to="cell3_2" priority="1" numLanes="1" speed="25.0"/>
	<edge id="edge259" from="cell2_1" to="cell2_2" priority="1" numLanes="1" speed="25.0"/>
	<edge id="edge260" from="cell2_1" to="cell3_1" priority="1" numLanes="1" speed="25.0"/>
	<edge id="edge261" from="cell2_1" to="cell1_1" priority="1" numLanes="1" speed="25.0"/>
	<edge id="edge262" from="cell2_1" to="cell2_0" priority="1" numLanes="1" speed="25.0"/>
	<edge id="edge263" from="cell2_2" to="cell1_1" priority="1" numLanes="1" speed="25.0"/>
	<edge id="edge264" from="cell2_2" to="cell1_3" priority="1" numLanes="1" speed="25.0"/>
	<edge id="edge265" from="cell2_2" to="cell3_1" priority="1" numLanes="1" speed="25.0"/>
	<edge id="edge266" from="cell2_2" to="cell3_3" priority="1" numLanes="1" speed="25.0"/>
	<edge id="edge267" from="cell2_2" to="cell2_3" priority="1" numLanes="1" speed="25.0"/>
	<edge id="edge268" from="cell2_2" to="cell3_2" priority="1" numLanes="1" speed="25.0"/>
	<edge id="edge269" from="cell2_2" to="cell1_2" priority="1" numLanes="1" speed="25.0"/>
	<edge id="edge270" from="cell2_2" to="cell2_1" priority="1" numLanes="1" speed="25.0"/>
	<edge id="edge271" from="cell2_3" to="cell1_2" priority="1" numLanes="1" speed="25.0"/>
	<edge id="edge272" from="cell2_3" to="cell1_4" priority="1" numLanes="1" speed="25.0"/>
	<edge id="edge273" from="cell2_3" to="cell3_2" priority="1" numLanes="1" speed="25.0"/>
	<edge id="edge274" from="cell2_3" to="cell3_4" priority="1" numLanes="1" speed="25.0"/>
	<edge id="edge275" from="cell2_3" to="cell2_4" priority="1" numLanes="1" speed="25.0"/>
	<edge id="edge276" from="cell2_3" to="cell3_3" priority="1" numLanes="1" speed="25.0"/>
	<edge id="edge277" from="cell2_3" to="cell1_3" priority="1" numLanes="1" speed="25.0"/>
	<edge id="edge278" from="cell2_3" to="cell2_2" priority="1" numLanes="1" speed="25.0"/>
	<edge id="edge279" from="cell2_4" to="cell1_3" priority="1" numLanes="1" speed="25.0"/>
	<edge id="edge280" from="cell2_4" to="cell1_5" priority="1" numLanes="1" speed="25.0"/>
	<edge id="edge281" from="cell2_4" to="cell3_3" priority="1" numLanes="1" speed="25.0"/>
	<edge id="edge282" from="cell2_4" to="cell3_5" priority="1" numLanes="1" speed="25.0"/>
	<edge id="edge283" from="cell2_4" to="cell2_5" priority="1" numLanes="1" speed="25.0"/>
	<edge id="edge284" from="cell2_4" to="cell3_4" priority="1" numLanes="1" speed="25.0"/>
	<edge id="edge285" from="cell2_4" to="cell1_4" priority="1" numLanes="1" speed="25.0"/>
	<edge id="edge286" from="cell2_4" to="cell2_3" priority="1" numLanes="1" speed="25.0"/>
	<edge id="edge287" from="cell2_5" to="cell1_4" priority="1" numLanes="1" speed="25.0"/>
	<edge id="edge288" from="cell2_5" to="cell1_6" priority="1" numLanes="1" speed="25.0"/>
	<edge id="edge289" from="cell2_5" to="cell3_4" priority="1" numLanes="1" speed="25.0"/>
	<edge id="edge290" from="cell2_5" to="cell3_6" priority="1" numLanes="1" speed="25.0"/>
	<edge id="edge291" from="cell2_5" to="cell2_6" priority="1" numLanes="1" speed="25.0"/>
	<edge id="edge292" from="cell2_5" to="cell3_5" priority="1" numLanes="1" speed="25.0"/>
	<edge id="edge293" from="cell2_5" to="cell1_5" priority="1" numLanes="1" speed="25.0"/>
	<edge id="edge294" from="cell2_5" to="cell2_4" priority="1" numLanes="1" speed="25.0"/>
	<edge id="edge295" from="cell2_6" to="cell1_5" priority="1" numLanes="1" speed="25.0"/>
	<edge id="edge296" from="cell2_6" to="cell1_7" priority="1" numLanes="1" speed="25.0"/>
	<edge id="edge297" from="cell2_6" to="cell3_5" priority="1" numLanes="1" speed="25.0"/>
	<edge id="edge298" from="cell2_6" to="cell3_7" priority="1" numLanes="1" speed="25.0"/>
	<edge id="edge299" from="cell2_6" to="cell2_7" priority="1" numLanes="1" speed="25.0"/>
	<edge id="edge300" from="cell2_6" to="cell3_6" priority="1" numLanes="1" speed="25.0"/>
	<edge id="edge301" from="cell2_6" to="cell1_6" priority="1" numLanes="1" speed="25.0"/>
	<edge id="edge302" from="cell2_6" to="cell2_5" priority="1" numLanes="1" speed="25.0"/>
	<edge id="edge303" from="cell2_7" to="cell1_6" priority="1" numLanes="1" speed="25.0"/>
	<edge id="edge304" from="cell2_7" to="cell1_8" priority="1" numLanes="1" speed="25.0"/>
	<edge id="edge305" from="cell2_7" to="cell3_6" priority="1" numLanes="1" speed="25.0"/>
	<edge id="edge306" from="cell2_7" to="cell3_8" priority="1" numLanes="1" speed="25.0"/>
	<edge id="edge307" from="cell2_7" to="cell2_8" priority="1" numLanes="1" speed="25.0"/>
	<edge id="edge308" from="cell2_7" to="cell3_7" priority="1" numLanes="1" speed="25.0"/>
	<edge id="edge309" from="cell2_7" to="cell1_7" priority="1" numLanes="1" speed="25.0"/>
	<edge id="edge310" from="cell2_7" to="cell2_6" priority="1" numLanes="1" speed="25.0"/>
	<edge id="edge311" from="cell2_8" to="cell1_7" priority="1" numLanes="1" speed="25.0"/>
	<edge id="edge312" from="cell2_8" to="cell1_9" priority="1" numLanes="1" speed="25.0"/>
	<edge id="edge313" from="cell2_8" to="cell3_7" priority="1" numLanes="1" speed="25.0"/>
	<edge id="edge314" from="cell2_8" to="cell3_9" priority="1" numLanes="1" speed="25.0"/>
	<edge id="edge315" from="cell2_8" to="cell2_9" priority="1" numLanes="1" speed="25.0"/>
	<edge id="edge316" from="cell2_8" to="cell3_8" priority="1" numLanes="1" speed="25.0"/>
	<edge id="edge317" from="cell2_8" to="cell1_8" priority="1" numLanes="1" speed="25.0"/>
	<edge id="edge318" from="cell2_8" to="cell2_7" priority="1" numLanes="1" speed="25.0"/>
	<edge id="edge319" from="cell2_9" to="cell1_8" priority="1" numLanes="1" speed="25.0"/>
	<edge id="edge320" from="cell2_9" to="cell1_10" priority="1" numLanes="1" speed="25.0"/>
	<edge id="edge321" from="cell2_9" to="cell3_8" priority="1" numLanes="1" speed="25.0"/>
	<edge id="edge322" from="cell2_9" to="cell3_10" priority="1" numLanes="1" speed="25.0"/>
	<edge id="edge323" from="cell2_9" to="cell2_10" priority="1" numLanes="1" speed="25.0"/>
	<edge id="edge324" from="cell2_9" to="cell3_9" priority="1" numLanes="1" speed="25.0"/>
	<edge id="edge325" from="cell2_9" to="cell1_9" priority="1" numLanes="1" speed="25.0"/>
	<edge id="edge326" from="cell2_9" to="cell2_8" priority="1" numLanes="1" speed="25.0"/>
	<edge id="edge327" from="cell2_10" to="cell1_9" priority="1" numLanes="1" speed="25.0"/>
	<edge id="edge328" from="cell2_10" to="cell1_11" priority="1" numLanes="1" speed="25.0"/>
	<edge id="edge329" from="cell2_10" to="cell3_9" priority="1" numLanes="1" speed="25.0"/>
	<edge id="edge330" from="cell2_10" to="cell3_11" priority="1" numLanes="1" speed="25.0"/>
	<edge id="edge331" from="cell2_10" to="cell2_11" priority="1" numLanes="1" speed="25.0"/>
	<edge id="edge332" from="cell2_10" to="cell3_10" priority="1" numLanes="1" speed="25.0"/>
	<edge id="edge333" from="cell2_10" to="cell1_10" priority="1" numLanes="1" speed="25.0"/>