<configuration>
	<input>
		<net-file value="grid.net.xml" />
		<route-files value="grid.rou.xml" />
	</input>
	<time>
		<begin value="0" />
		<end value="3000000" />
	</time>
</configuration>