<!--
	This code was autogenerated using gridgen.py
	Total Nodes = 400
-->
<nodes>
	<node id="cell0_0" x="0" y="0" type="priority"/>
	<node id="cell0_1" x="100" y="0" type="priority"/>
	<node id="cell0_2" x="200" y="0" type="priority"/>
	<node id="cell0_3" x="300" y="0" type="priority"/>
	<node id="cell0_4" x="400" y="0" type="priority"/>
	<node id="cell0_5" x="500" y="0" type="priority"/>
	<node id="cell0_6" x="600" y="0" type="priority"/>
	<node id="cell0_7" x="700" y="0" type="priority"/>
	<node id="cell0_8" x="800" y="0" type="priority"/>
	<node id="cell0_9" x="900" y="0" type="priority"/>
	<node id="cell0_10" x="1000" y="0" type="priority"/>
	<node id="cell0_11" x="1100" y="0" type="priority"/>
	<node id="cell0_12" x="1200" y="0" type="priority"/>
	<node id="cell0_13" x="1300" y="0" type="priority"/>
	<node id="cell0_14" x="1400" y="0" type="priority"/>
	<node id="cell0_15" x="1500" y="0" type="priority"/>
	<node id="cell0_16" x="1600" y="0" type="priority"/>
	<node id="cell0_17" x="1700" y="0" type="priority"/>
	<node id="cell0_18" x="1800" y="0" type="priority"/>
	<node id="cell0_19" x="1900" y="0" type="priority"/>
	<node id="cell1_0" x="0" y="100" type="priority"/>
	<node id="cell1_1" x="100" y="100" type="priority"/>
	<node id="cell1_2" x="200" y="100" type="priority"/>
	<node id="cell1_3" x="300" y="100" type="priority"/>
	<node id="cell1_4" x="400" y="100" type="priority"/>
	<node id="cell1_5" x="500" y="100" type="priority"/>
	<node id="cell1_6" x="600" y="100" type="priority"/>
	<node id="cell1_7" x="700" y="100" type="priority"/>
	<node id="cell1_8" x="800" y="100" type="priority"/>
	<node id="cell1_9" x="900" y="100" type="priority"/>
	<node id="cell1_10" x="1000" y="100" type="priority"/>
	<node id="cell1_11" x="1100" y="100" type="priority"/>
	<node id="cell1_12" x="1200" y="100" type="priority"/>
	<node id="cell1_13" x="1300" y="100" type="priority"/>
	<node id="cell1_14" x="1400" y="100" type="priority"/>
	<node id="cell1_15" x="1500" y="100" type="priority"/>
	<node id="cell1_16" x="1600" y="100" type="priority"/>
	<node id="cell1_17" x="1700" y="100" type="priority"/>
	<node id="cell1_18" x="1800" y="100" type="priority"/>
	<node id="cell1_19" x="1900" y="100" type="priority"/>
	<node id="cell2_0" x="0" y="200" type="priority"/>
	<node id="cell2_1" x="100" y="200" type="priority"/>
	<node id="cell2_2" x="200" y="200" type="priority"/>
	<node id="cell2_3" x="300" y="200" type="priority"/>
	<node id="cell2_4" x="400" y="200" type="priority"/>
	<node id="cell2_5" x="500" y="200" type="priority"/>
	<node id="cell2_6" x="600" y="200" type="priority"/>
	<node id="cell2_7" x="700" y="200" type="priority"/>
	<node id="cell2_8" x="800" y="200" type="priority"/>
	<node id="cell2_9" x="900" y="200" type="priority"/>
	<node id="cell2_10" x="1000" y="200" type="priority"/>
	<node id="cell2_11" x="1100" y="200" type="priority"/>
	<node id="cell2_12" x="1200" y="200" type="priority"/>
	<node id="cell2_13" x="1300" y="200" type="priority"/>
	<node id="cell2_14" x="1400" y="200" type="priority"/>
	<node id="cell2_15" x="1500" y="200" type="priority"/>
	<node id="cell2_16" x="1600" y="200" type="priority"/>
	<node id="cell2_17" x="1700" y="200" type="priority"/>
	<node id="cell2_18" x="1800" y="200" type="priority"/>
	<node id="cell2_19" x="1900" y="200" type="priority"/>
	<node id="cell3_0" x="0" y="300" type="priority"/>
	<node id="cell3_1" x="100" y="300" type="priority"/>
	<node id="cell3_2" x="200" y="300" type="priority"/>
	<node id="cell3_3" x="300" y="300" type="priority"/>
	<node id="cell3_4" x="400" y="300" type="priority"/>
	<node id="cell3_5" x="500" y="300" type="priority"/>
	<node id="cell3_6" x="600" y="300" type="priority"/>
	<node id="cell3_7" x="700" y="300" type="priority"/>
	<node id="cell3_8" x="800" y="300" type="priority"/>
	<node id="cell3_9" x="900" y="300" type="priority"/>
	<node id="cell3_10" x="1000" y="300" type="priority"/>
	<node id="cell3_11" x="1100" y="300" type="priority"/>
	<node id="cell3_12" x="1200" y="300" type="priority"/>
	<node id="cell3_13" x="1300" y="300" type="priority"/>
	<node id="cell3_14" x="1400" y="300" type="priority"/>
	<node id="cell3_15" x="1500" y="300" type="priority"/>
	<node id="cell3_16" x="1600" y="300" type="priority"/>
	<node id="cell3_17" x="1700" y="300" type="priority"/>
	<node id="cell3_18" x="1800" y="300" type="priority"/>
	<node id="cell3_19" x="1900" y="300" type="priority"/>
	<node id="cell4_0" x="0" y="400" type="priority"/>
	<node id="cell4_1" x="100" y="400" type="priority"/>
	<node id="cell4_2" x="200" y="400" type="priority"/>
	<node id="cell4_3" x="300" y="400" type="priority"/>
	<node id="cell4_4" x="400" y="400" type="priority"/>
	<node id="cell4_5" x="500" y="400" type="priority"/>
	<node id="cell4_6" x="600" y="400" type="priority"/>
	<node id="cell4_7" x="700" y="400" type="priority"/>
	<node id="cell4_8" x="800" y="400" type="priority"/>
	<node id="cell4_9" x="900" y="400" type="priority"/>
	<node id="cell4_10" x="1000" y="400" type="priority"/>
	<node id="cell4_11" x="1100" y="400" type="priority"/>
	<node id="cell4_12" x="1200" y="400" type="priority"/>
	<node id="cell4_13" x="1300" y="400" type="priority"/>
	<node id="cell4_14" x="1400" y="400" type="priority"/>
	<node id="cell4_15" x="1500" y="400" type="priority"/>
	<node id="cell4_16" x="1600" y="400" type="priority"/>
	<node id="cell4_17" x="1700" y="400" type="priority"/>
	<node id="cell4_18" x="1800" y="400" type="priority"/>
	<node id="cell4_19" x="1900" y="400" type="priority"/>
	<node id="cell5_0" x="0" y="500" type="priority"/>
	<node id="cell5_1" x="100" y="500" type="priority"/>
	<node id="cell5_2" x="200" y="500" type="priority"/>
	<node id="cell5_3" x="300" y="500" type="priority"/>
	<node id="cell5_4" x="400" y="500" type="priority"/>
	<node id="cell5_5" x="500" y="500" type="priority"/>
	<node id="cell5_6" x="600" y="500" type="priority"/>
	<node id="cell5_7" x="700" y="500" type="priority"/>
	<node id="cell5_8" x="800" y="500" type="priority"/>
	<node id="cell5_9" x="900" y="500" type="priority"/>
	<node id="cell5_10" x="1000" y="500" type="priority"/>
	<node id="cell5_11" x="1100" y="500" type="priority"/>
	<node id="cell5_12" x="1200" y="500" type="priority"/>
	<node id="cell5_13" x="1300" y="500" type="priority"/>
	<node id="cell5_14" x="1400" y="500" type="priority"/>
	<node id="cell5_15" x="1500" y="500" type="priority"/>
	<node id="cell5_16" x="1600" y="500" type="priority"/>
	<node id="cell5_17" x="1700" y="500" type="priority"/>
	<node id="cell5_18" x="1800" y="500" type="priority"/>
	<node id="cell5_19" x="1900" y="500" type="priority"/>
	<node id="cell6_0" x="0" y="600" type="priority"/>
	<node id="cell6_1" x="100" y="600" type="priority"/>
	<node id="cell6_2" x="200" y="600" type="priority"/>
	<node id="cell6_3" x="300" y="600" type="priority"/>
	<node id="cell6_4" x="400" y="600" type="priority"/>
	<node id="cell6_5" x="500" y="600" type="priority"/>
	<node id="cell6_6" x="600" y="600" type="priority"/>
	<node id="cell6_7" x="700" y="600" type="priority"/>
	<node id="cell6_8" x="800" y="600" type="priority"/>
	<node id="cell6_9" x="900" y="600" type="priority"/>
	<node id="cell6_10" x="1000" y="600" type="priority"/>
	<node id="cell6_11" x="1100" y="600" type="priority"/>
	<node id="cell6_12" x="1200" y="600" type="priority"/>
	<node id="cell6_13" x="1300" y="600" type="priority"/>
	<node id="cell6_14" x="1400" y="600" type="priority"/>
	<node id="cell6_15" x="1500" y="600" type="priority"/>
	<node id="cell6_16" x="1600" y="600" type="priority"/>
	<node id="cell6_17" x="1700" y="600" type="priority"/>
	<node id="cell6_18" x="1800" y="600" type="priority"/>
	<node id="cell6_19" x="1900" y="600" type="priority"/>
	<node id="cell7_0" x="0" y="700" type="priority"/>
	<node id="cell7_1" x="100" y="700" type="priority"/>
	<node id="cell7_2" x="200" y="700" type="priority"/>
	<node id="cell7_3" x="300" y="700" type="priority"/>
	<node id="cell7_4" x="400" y="700" type="priority"/>
	<node id="cell7_5" x="500" y="700" type="priority"/>
	<node id="cell7_6" x="600" y="700" type="priority"/>
	<node id="cell7_7" x="700" y="700" type="priority"/>
	<node id="cell7_8" x="800" y="700" type="priority"/>
	<node id="cell7_9" x="900" y="700" type="priority"/>
	<node id="cell7_10" x="1000" y="700" type="priority"/>
	<node id="cell7_11" x="1100" y="700" type="priority"/>
	<node id="cell7_12" x="1200" y="700" type="priority"/>
	<node id="cell7_13" x="1300" y="700" type="priority"/>
	<node id="cell7_14" x="1400" y="700" type="priority"/>
	<node id="cell7_15" x="1500" y="700" type="priority"/>
	<node id="cell7_16" x="1600" y="700" type="priority"/>
	<node id="cell7_17" x="1700" y="700" type="priority"/>
	<node id="cell7_18" x="1800" y="700" type="priority"/>
	<node id="cell7_19" x="1900" y="700" type="priority"/>
	<node id="cell8_0" x="0" y="800" type="priority"/>
	<node id="cell8_1" x="100" y="800" type="priority"/>
	<node id="cell8_2" x="200" y="800" type="priority"/>
	<node id="cell8_3" x="300" y="800" type="priority"/>
	<node id="cell8_4" x="400" y="800" type="priority"/>
	<node id="cell8_5" x="500" y="800" type="priority"/>
	<node id="cell8_6" x="600" y="800" type="priority"/>
	<node id="cell8_7" x="700" y="800" type="priority"/>
	<node id="cell8_8" x="800" y="800" type="priority"/>
	<node id="cell8_9" x="900" y="800" type="priority"/>
	<node id="cell8_10" x="1000" y="800" type="priority"/>
	<node id="cell8_11" x="1100" y="800" type="priority"/>
	<node id="cell8_12" x="1200" y="800" type="priority"/>
	<node id="cell8_13" x="1300" y="800" type="priority"/>
	<node id="cell8_14" x="1400" y="800" type="priority"/>
	<node id="cell8_15" x="1500" y="800" type="priority"/>
	<node id="cell8_16" x="1600" y="800" type="priority"/>
	<node id="cell8_17" x="1700" y="800" type="priority"/>
	<node id="cell8_18" x="1800" y="800" type="priority"/>
	<node id="cell8_19" x="1900" y="800" type="priority"/>
	<node id="cell9_0" x="0" y="900" type="priority"/>
	<node id="cell9_1" x="100" y="900" type="priority"/>
	<node id="cell9_2" x="200" y="900" type="priority"/>
	<node id="cell9_3" x="300" y="900" type="priority"/>
	<node id="cell9_4" x="400" y="900" type="priority"/>
	<node id="cell9_5" x="500" y="900" type="priority"/>
	<node id="cell9_6" x="600" y="900" type="priority"/>
	<node id="cell9_7" x="700" y="900" type="priority"/>
	<node id="cell9_8" x="800" y="900" type="priority"/>
	<node id="cell9_9" x="900" y="900" type="priority"/>
	<node id="cell9_10" x="1000" y="900" type="priority"/>
	<node id="cell9_11" x="1100" y="900" type="priority"/>
	<node id="cell9_12" x="1200" y="900" type="priority"/>
	<node id="cell9_13" x="1300" y="900" type="priority"/>
	<node id="cell9_14" x="1400" y="900" type="priority"/>
	<node id="cell9_15" x="1500" y="900" type="priority"/>
	<node id="cell9_16" x="1600" y="900" type="priority"/>
	<node id="cell9_17" x="1700" y="900" type="priority"/>
	<node id="cell9_18" x="1800" y="900" type="priority"/>
	<node id="cell9_19" x="1900" y="900" type="priority"/>
	<node id="cell10_0" x="0" y="1000" type="priority"/>
	<node id="cell10_1" x="100" y="1000" type="priority"/>
	<node id="cell10_2" x="200" y="1000" type="priority"/>
	<node id="cell10_3" x="300" y="1000" type="priority"/>
	<node id="cell10_4" x="400" y="1000" type="priority"/>
	<node id="cell10_5" x="500" y="1000" type="priority"/>
	<node id="cell10_6" x="600" y="1000" type="priority"/>
	<node id="cell10_7" x="700" y="1000" type="priority"/>
	<node id="cell10_8" x="800" y="1000" type="priority"/>
	<node id="cell10_9" x="900" y="1000" type="priority"/>
	<node id="cell10_10" x="1000" y="1000" type="priority"/>
	<node id="cell10_11" x="1100" y="1000" type="priority"/>
	<node id="cell10_12" x="1200" y="1000" type="priority"/>
	<node id="cell10_13" x="1300" y="1000" type="priority"/>
	<node id="cell10_14" x="1400" y="1000" type="priority"/>
	<node id="cell10_15" x="1500" y="1000" type="priority"/>
	<node id="cell10_16" x="1600" y="1000" type="priority"/>
	<node id="cell10_17" x="1700" y="1000" type="priority"/>
	<node id="cell10_18" x="1800" y="1000" type="priority"/>
	<node id="cell10_19" x="1900" y="1000" type="priority"/>
	<node id="cell11_0" x="0" y="1100" type="priority"/>
	<node id="cell11_1" x="100" y="1100" type="priority"/>
	<node id="cell11_2" x="200" y="1100" type="priority"/>
	<node id="cell11_3" x="300" y="1100" type="priority"/>
	<node id="cell11_4" x="400" y="1100" type="priority"/>
	<node id="cell11_5" x="500" y="1100" type="priority"/>
	<node id="cell11_6" x="600" y="1100" type="priority"/>
	<node id="cell11_7" x="700" y="1100" type="priority"/>
	<node id="cell11_8" x="800" y="1100" type="priority"/>
	<node id="cell11_9" x="900" y="1100" type="priority"/>
	<node id="cell11_10" x="1000" y="1100" type="priority"/>
	<node id="cell11_11" x="1100" y="1100" type="priority"/>
	<node id="cell11_12" x="1200" y="1100" type="priority"/>
	<node id="cell11_13" x="1300" y="1100" type="priority"/>
	<node id="cell11_14" x="1400" y="1100" type="priority"/>
	<node id="cell11_15" x="1500" y="1100" type="priority"/>
	<node id="cell11_16" x="1600" y="1100" type="priority"/>
	<node id="cell11_17" x="1700" y="1100" type="priority"/>
	<node id="cell11_18" x="1800" y="1100" type="priority"/>
	<node id="cell11_19" x="1900" y="1100" type="priority"/>
	<node id="cell12_0" x="0" y="1200" type="priority"/>
	<node id="cell12_1" x="100" y="1200" type="priority"/>
	<node id="cell12_2" x="200" y="1200" type="priority"/>
	<node id="cell12_3" x="300" y="1200" type="priority"/>
	<node id="cell12_4" x="400" y="1200" type="priority"/>
	<node id="cell12_5" x="500" y="1200" type="priority"/>
	<node id="cell12_6" x="600" y="1200" type="priority"/>
	<node id="cell12_7" x="700" y="1200" type="priority"/>
	<node id="cell12_8" x="800" y="1200" type="priority"/>
	<node id="cell12_9" x="900" y="1200" type="priority"/>
	<node id="cell12_10" x="1000" y="1200" type="priority"/>
	<node id="cell12_11" x="1100" y="1200" type="priority"/>
	<node id="cell12_12" x="1200" y="1200" type="priority"/>
	<node id="cell12_13" x="1300" y="1200" type="priority"/>
	<node id="cell12_14" x="1400" y="1200" type="priority"/>
	<node id="cell12_15" x="1500" y="1200" type="priority"/>
	<node id="cell12_16" x="1600" y="1200" type="priority"/>
	<node id="cell12_17" x="1700" y="1200" type="priority"/>
	<node id="cell12_18" x="1800" y="1200" type="priority"/>
	<node id="cell12_19" x="1900" y="1200" type="priority"/>
	<node id="cell13_0" x="0" y="1300" type="priority"/>
	<node id="cell13_1" x="100" y="1300" type="priority"/>
	<node id="cell13_2" x="200" y="1300" type="priority"/>
	<node id="cell13_3" x="300" y="1300" type="priority"/>
	<node id="cell13_4" x="400" y="1300" type="priority"/>
	<node id="cell13_5" x="500" y="1300" type="priority"/>
	<node id="cell13_6" x="600" y="1300" type="priority"/>
	<node id="cell13_7" x="700" y="1300" type="priority"/>
	<node id="cell13_8" x="800" y="1300" type="priority"/>
	<node id="cell13_9" x="900" y="1300" type="priority"/>
	<node id="cell13_10" x="1000" y="1300" type="priority"/>
	<node id="cell13_11" x="1100" y="1300" type="priority"/>
	<node id="cell13_12" x="1200" y="1300" type="priority"/>
	<node id="cell13_13" x="1300" y="1300" type="priority"/>
	<node id="cell13_14" x="1400" y="1300" type="priority"/>
	<node id="cell13_15" x="1500" y="1300" type="priority"/>
	<node id="cell13_16" x="1600" y="1300" type="priority"/>
	<node id="cell13_17" x="1700" y="1300" type="priority"/>
	<node id="cell13_18" x="1800" y="1300" type="priority"/>
	<node id="cell13_19" x="1900" y="1300" type="priority"/>
	<node id="cell14_0" x="0" y="1400" type="priority"/>
	<node id="cell14_1" x="100" y="1400" type="priority"/>
	<node id="cell14_2" x="200" y="1400" type="priority"/>
	<node id="cell14_3" x="300" y="1400" type="priority"/>
	<node id="cell14_4" x="400" y="1400" type="priority"/>
	<node id="cell14_5" x="500" y="1400" type="priority"/>
	<node id="cell14_6" x="600" y="1400" type="priority"/>
	<node id="cell14_7" x="700" y="1400" type="priority"/>
	<node id="cell14_8" x="800" y="1400" type="priority"/>
	<node id="cell14_9" x="900" y="1400" type="priority"/>
	<node id="cell14_10" x="1000" y="1400" type="priority"/>
	<node id="cell14_11" x="1100" y="1400" type="priority"/>
	<node id="cell14_12" x="1200" y="1400" type="priority"/>
	<node id="cell14_13" x="1300" y="1400" type="priority"/>
	<node id="cell14_14" x="1400" y="1400" type="priority"/>
	<node id="cell14_15" x="1500" y="1400" type="priority"/>
	<node id="cell14_16" x="1600" y="1400" type="priority"/>
	<node id="cell14_17" x="1700" y="1400" type="priority"/>
	<node id="cell14_18" x="1800" y="1400" type="priority"/>
	<node id="cell14_19" x="1900" y="1400" type="priority"/>
	<node id="cell15_0" x="0" y="1500" type="priority"/>
	<node id="cell15_1" x="100" y="1500" type="priority"/>
	<node id="cell15_2" x="200" y="1500" type="priority"/>
	<node id="cell15_3" x="300" y="1500" type="priority"/>
	<node id="cell15_4" x="400" y="1500" type="priority"/>
	<node id="cell15_5" x="500" y="1500" type="priority"/>
	<node id="cell15_6" x="600" y="1500" type="priority"/>
	<node id="cell15_7" x="700" y="1500" type="priority"/>
	<node id="cell15_8" x="800" y="1500" type="priority"/>
	<node id="cell15_9" x="900" y="1500" type="priority"/>
	<node id="cell15_10" x="1000" y="1500" type="priority"/>
	<node id="cell15_11" x="1100" y="1500" type="priority"/>
	<node id="cell15_12" x="1200" y="1500" type="priority"/>
	<node id="cell15_13" x="1300" y="1500" type="priority"/>
	<node id="cell15_14" x="1400" y="1500" type="priority"/>
	<node id="cell15_15" x="1500" y="1500" type="priority"/>
	<node id="cell15_16" x="1600" y="1500" type="priority"/>
	<node id="cell15_17" x="1700" y="1500" type="priority"/>
	<node id="cell15_18" x="1800" y="1500" type="priority"/>
	<node id="cell15_19" x="1900" y="1500" type="priority"/>
	<node id="cell16_0" x="0" y="1600" type="priority"/>
	<node id="cell16_1" x="100" y="1600" type="priority"/>
	<node id="cell16_2" x="200" y="1600" type="priority"/>
	<node id="cell16_3" x="300" y="1600" type="priority"/>
	<node id="cell16_4" x="400" y="1600" type="priority"/>
	<node id="cell16_5" x="500" y="1600" type="priority"/>
	<node id="cell16_6" x="600" y="1600" type="priority"/>
	<node id="cell16_7" x="700" y="1600" type="priority"/>
	<node id="cell16_8" x="800" y="1600" type="priority"/>
	<node id="cell16_9" x="900" y="1600" type="priority"/>
	<node id="cell16_10" x="1000" y="1600" type="priority"/>
	<node id="cell16_11" x="1100" y="1600" type="priority"/>
	<node id="cell16_12" x="1200" y="1600" type="priority"/>
	<node id="cell16_13" x="1300" y="1600" type="priority"/>
	<node id="cell16_14" x="1400" y="1600" type="priority"/>
	<node id="cell16_15" x="1500" y="1600" type="priority"/>
	<node id="cell16_16" x="1600" y="1600" type="priority"/>
	<node id="cell16_17" x="1700" y="1600" type="priority"/>
	<node id="cell16_18" x="1800" y="1600" type="priority"/>
	<node id="cell16_19" x="1900" y="1600" type="priority"/>
	<node id="cell17_0" x="0" y="1700" type="priority"/>
	<node id="cell17_1" x="100" y="1700" type="priority"/>
	<node id="cell17_2" x="200" y="1700" type="priority"/>
	<node id="cell17_3" x="300" y="1700" type="priority"/>
	<node id="cell17_4" x="400" y="1700" type="priority"/>
	<node id="cell17_5" x="500" y="1700" type="priority"/>
	<node id="cell17_6" x="600" y="1700" type="priority"/>
	<node id="cell17_7" x="700" y="1700" type="priority"/>
	<node id="cell17_8" x="800" y="1700" type="priority"/>
	<node id="cell17_9" x="900" y="1700" type="priority"/>
	<node id="cell17_10" x="1000" y="1700" type="priority"/>
	<node id="cell17_11" x="1100" y="1700" type="priority"/>
	<node id="cell17_12" x="1200" y="1700" type="priority"/>
	<node id="cell17_13" x="1300" y="1700" type="priority"/>
	<node id="cell17_14" x="1400" y="1700" type="priority"/>
	<node id="cell17_15" x="1500" y="1700" type="priority"/>
	<node id="cell17_16" x="1600" y="1700" type="priority"/>
	<node id="cell17_17" x="1700" y="1700" type="priority"/>
	<node id="cell17_18" x="1800" y="1700" type="priority"/>
	<node id="cell17_19" x="1900" y="1700" type="priority"/>
	<node id="cell18_0" x="0" y="1800" type="priority"/>
	<node id="cell18_1" x="100" y="1800" type="priority"/>
	<node id="cell18_2" x="200" y="1800" type="priority"/>
	<node id="cell18_3" x="300" y="1800" type="priority"/>
	<node id="cell18_4" x="400" y="1800" type="priority"/>
	<node id="cell18_5" x="500" y="1800" type="priority"/>
	<node id="cell18_6" x="600" y="1800" type="priority"/>
	<node id="cell18_7" x="700" y="1800" type="priority"/>
	<node id="cell18_8" x="800" y="1800" type="priority"/>
	<node id="cell18_9" x="900" y="1800" type="priority"/>
	<node id="cell18_10" x="1000" y="1800" type="priority"/>
	<node id="cell18_11" x="1100" y="1800" type="priority"/>
	<node id="cell18_12" x="1200" y="1800" type="priority"/>
	<node id="cell18_13" x="1300" y="1800" type="priority"/>
	<node id="cell18_14" x="1400" y="1800" type="priority"/>
	<node id="cell18_15" x="1500" y="1800" type="priority"/>
	<node id="cell18_16" x="1600" y="1800" type="priority"/>
	<node id="cell18_17" x="1700" y="1800" type="priority"/>
	<node id="cell18_18" x="1800" y="1800" type="priority"/>
	<node id="cell18_19" x="1900" y="1800" type="priority"/>
	<node id="cell19_0" x="0" y="1900" type="priority"/>
	<node id="cell19_1" x="100" y="1900" type="priority"/>
	<node id="cell19_2" x="200" y="1900" type="priority"/>
	<node id="cell19_3" x="300" y="1900" type="priority"/>
	<node id="cell19_4" x="400" y="1900" type="priority"/>
	<node id="cell19_5" x="500" y="1900" type="priority"/>
	<node id="cell19_6" x="600" y="1900" type="priority"/>
	<node id="cell19_7" x="700" y="1900" type="priority"/>
	<node id="cell19_8" x="800" y="1900" type="priority"/>
	<node id="cell19_9" x="900" y="1900" type="priority"/>
	<node id="cell19_10" x="1000" y="1900" type="priority"/>
	<node id="cell19_11" x="1100" y="1900" type="priority"/>
	<node id="cell19_12" x="1200" y="1900" type="priority"/>
	<node id="cell19_13" x="1300" y="1900" type="priority"/>
	<node id="cell19_14" x="1400" y="1900" type="priority"/>
	<node id="cell19_15" x="1500" y="1900" type="priority"/>
	<node id="cell19_16" x="1600" y="1900" type="priority"/>
	<node id="cell19_17" x="1700" y="1900" type="priority"/>
	<node id="cell19_18" x="1800" y="1900" type="priority"/>
	<node id="cell19_19" x="1900" y="1900" type="priority"/>
</nodes>