<edges>
	<edge id="road0" from="cell0_0" to="cell0_0" priority="1" numLanes="1" speed="100.000000"/>
	<edge id="road1" from="cell0_0" to="cell0_1" priority="1" numLanes="1" speed="100.000000"/>
	<edge id="road2" from="cell0_0" to="cell1_0" priority="1" numLanes="1" speed="100.000000"/>
	<edge id="road3" from="cell0_1" to="cell0_1" priority="1" numLanes="1" speed="100.000000"/>
	<edge id="road4" from="cell0_1" to="cell1_1" priority="1" numLanes="1" speed="100.000000"/>
	<edge id="road5" from="cell0_1" to="cell0_0" priority="1" numLanes="1" speed="100.000000"/>
	<edge id="road6" from="cell0_1" to="cell0_2" priority="1" numLanes="1" speed="100.000000"/>
	<edge id="road7" from="cell0_2" to="cell0_2" priority="1" numLanes="1" speed="100.000000"/>
	<edge id="road8" from="cell0_2" to="cell0_1" priority="1" numLanes="1" speed="100.000000"/>
	<edge id="road9" from="cell0_2" to="cell1_2" priority="1" numLanes="1" speed="100.000000"/>
	<edge id="road10" from="cell0_2" to="cell0_3" priority="1" numLanes="1" speed="100.000000"/>
	<edge id="road11" from="cell0_3" to="cell0_3" priority="1" numLanes="1" speed="100.000000"/>
	<edge id="road12" from="cell0_3" to="cell1_3" priority="1" numLanes="1" speed="100.000000"/>
	<edge id="road13" from="cell0_3" to="cell0_2" priority="1" numLanes="1" speed="100.000000"/>
	<edge id="road14" from="cell0_3" to="cell0_4" priority="1" numLanes="1" speed="100.000000"/>
	<edge id="road15" from="cell0_4" to="cell0_4" priority="1" numLanes="1" speed="100.000000"/>
	<edge id="road16" from="cell0_4" to="cell1_4" priority="1" numLanes="1" speed="100.000000"/>
	<edge id="road17" from="cell0_4" to="cell0_3" priority="1" numLanes="1" speed="100.000000"/>
	<edge id="road18" from="cell1_0" to="cell1_0" priority="1" numLanes="1" speed="100.000000"/>
	<edge id="road19" from="cell1_0" to="cell2_0" priority="1" numLanes="1" speed="100.000000"/>
	<edge id="road20" from="cell1_0" to="cell1_1" priority="1" numLanes="1" speed="100.000000"/>
	<edge id="road21" from="cell1_0" to="cell0_0" priority="1" numLanes="1" speed="100.000000"/>
	<edge id="road22" from="cell1_1" to="cell1_1" priority="1" numLanes="1" speed="100.000000"/>
	<edge id="road23" from="cell1_1" to="cell2_1" priority="1" numLanes="1" speed="100.000000"/>
	<edge id="road24" from="cell1_1" to="cell2_2" priority="1" numLanes="1" speed="100.000000"/>
	<edge id="road25" from="cell1_1" to="cell1_2" priority="1" numLanes="1" speed="100.000000"/>
	<edge id="road26" from="cell1_1" to="cell0_1" priority="1" numLanes="1" speed="100.000000"/>
	<edge id="road27" from="cell1_1" to="cell1_0" priority="1" numLanes="1" speed="100.000000"/>
	<edge id="road28" from="cell1_2" to="cell1_2" priority="1" numLanes="1" speed="100.000000"/>
	<edge id="road29" from="cell1_2" to="cell2_2" priority="1" numLanes="1" speed="100.000000"/>
	<edge id="road30" from="cell1_2" to="cell1_1" priority="1" numLanes="1" speed="100.000000"/>
	<edge id="road31" from="cell1_2" to="cell1_3" priority="1" numLanes="1" speed="100.000000"/>
	<edge id="road32" from="cell1_2" to="cell0_2" priority="1" numLanes="1" speed="100.000000"/>
	<edge id="road33" from="cell1_3" to="cell1_3" priority="1" numLanes="1" speed="100.000000"/>
	<edge id="road34" from="cell1_3" to="cell2_3" priority="1" numLanes="1" speed="100.000000"/>
	<edge id="road35" from="cell1_3" to="cell1_2" priority="1" numLanes="1" speed="100.000000"/>
	<edge id="road36" from="cell1_3" to="cell1_4" priority="1" numLanes="1" speed="100.000000"/>
	<edge id="road37" from="cell1_3" to="cell0_3" priority="1" numLanes="1" speed="100.000000"/>
	<edge id="road38" from="cell1_4" to="cell1_4" priority="1" numLanes="1" speed="100.000000"/>
	<edge id="road39" from="cell1_4" to="cell1_3" priority="1" numLanes="1" speed="100.000000"/>
	<edge id="road40" from="cell1_4" to="cell2_4" priority="1" numLanes="1" speed="100.000000"/>
	<edge id="road41" from="cell1_4" to="cell0_4" priority="1" numLanes="1" speed="100.000000"/>
	<edge id="road42" from="cell2_0" to="cell2_0" priority="1" numLanes="1" speed="100.000000"/>
	<edge id="road43" from="cell2_0" to="cell1_0" priority="1" numLanes="1" speed="100.000000"/>
	<edge id="road44" from="cell2_0" to="cell2_1" priority="1" numLanes="1" speed="100.000000"/>
	<edge id="road45" from="cell2_0" to="cell3_0" priority="1" numLanes="1" speed="100.000000"/>
	<edge id="road46" from="cell2_1" to="cell2_1" priority="1" numLanes="1" speed="100.000000"/>
	<edge id="road47" from="cell2_1" to="cell1_1" priority="1" numLanes="1" speed="100.000000"/>
	<edge id="road48" from="cell2_1" to="cell2_2" priority="1" numLanes="1" speed="100.000000"/>
	<edge id="road49" from="cell2_1" to="cell3_1" priority="1" numLanes="1" speed="100.000000"/>
	<edge id="road50" from="cell2_1" to="cell2_0" priority="1" numLanes="1" speed="100.000000"/>
	<edge id="road51" from="cell2_2" to="cell2_2" priority="1" numLanes="1" speed="100.000000"/>
	<edge id="road52" from="cell2_2" to="cell1_2" priority="1" numLanes="1" speed="100.000000"/>
	<edge id="road53" from="cell2_2" to="cell2_1" priority="1" numLanes="1" speed="100.000000"/>
	<edge id="road54" from="cell2_2" to="cell3_2" priority="1" numLanes="1" speed="100.000000"/>
	<edge id="road55" from="cell2_2" to="cell2_3" priority="1" numLanes="1" speed="100.000000"/>
	<edge id="road56" from="cell2_2" to="cell1_1" priority="1" numLanes="1" speed="100.000000"/>
	<edge id="road57" from="cell2_3" to="cell2_3" priority="1" numLanes="1" speed="100.000000"/>
	<edge id="road58" from="cell2_3" to="cell1_3" priority="1" numLanes="1" speed="100.000000"/>
	<edge id="road59" from="cell2_3" to="cell3_3" priority="1" numLanes="1" speed="100.000000"/>
	<edge id="road60" from="cell2_3" to="cell2_2" priority="1" numLanes="1" speed="100.000000"/>
	<edge id="road61" from="cell2_3" to="cell2_4" priority="1" numLanes="1" speed="100.000000"/>
	<edge id="road62" from="cell2_4" to="cell2_4" priority="1" numLanes="1" speed="100.000000"/>
	<edge id="road63" from="cell2_4" to="cell2_3" priority="1" numLanes="1" speed="100.000000"/>
	<edge id="road64" from="cell2_4" to="cell1_4" priority="1" numLanes="1" speed="100.000000"/>
	<edge id="road65" from="cell3_0" to="cell3_0" priority="1" numLanes="1" speed="100.000000"/>
	<edge id="road66" from="cell3_0" to="cell3_1" priority="1" numLanes="1" speed="100.000000"/>
	<edge id="road67" from="cell3_0" to="cell4_0" priority="1" numLanes="1" speed="100.000000"/>
	<edge id="road68" from="cell3_0" to="cell2_0" priority="1" numLanes="1" speed="100.000000"/>
	<edge id="road69" from="cell3_1" to="cell3_1" priority="1" numLanes="1" speed="100.000000"/>
	<edge id="road70" from="cell3_1" to="cell3_2" priority="1" numLanes="1" speed="100.000000"/>
	<edge id="road71" from="cell3_1" to="cell2_1" priority="1" numLanes="1" speed="100.000000"/>
	<edge id="road72" from="cell3_1" to="cell3_0" priority="1" numLanes="1" speed="100.000000"/>
	<edge id="road73" from="cell3_1" to="cell4_1" priority="1" numLanes="1" speed="100.000000"/>
	<edge id="road74" from="cell3_2" to="cell2_2" priority="1" numLanes="1" speed="100.000000"/>
	<edge id="road75" from="cell3_2" to="cell3_2" priority="1" numLanes="1" speed="100.000000"/>
	<edge id="road76" from="cell3_2" to="cell4_2" priority="1" numLanes="1" speed="100.000000"/>
	<edge id="road77" from="cell3_2" to="cell3_3" priority="1" numLanes="1" speed="100.000000"/>
	<edge id="road78" from="cell3_2" to="cell3_1" priority="1" numLanes="1" speed="100.000000"/>
	<edge id="road79" from="cell3_3" to="cell3_2" priority="1" numLanes="1" speed="100.000000"/>
	<edge id="road80" from="cell3_3" to="cell3_3" priority="1" numLanes="1" speed="100.000000"/>
	<edge id="road81" from="cell3_3" to="cell2_3" priority="1" numLanes="1" speed="100.000000"/>
	<edge id="road82" from="cell3_3" to="cell4_3" priority="1" numLanes="1" speed="100.000000"/>
	<edge id="road83" from="cell3_3" to="cell3_4" priority="1" numLanes="1" speed="100.000000"/>
	<edge id="road84" from="cell3_4" to="cell3_3" priority="1" numLanes="1" speed="100.000000"/>
	<edge id="road85" from="cell3_4" to="cell3_4" priority="1" numLanes="1" speed="100.000000"/>
	<edge id="road86" from="cell3_4" to="cell4_4" priority="1" numLanes="1" speed="100.000000"/>
	<edge id="road87" from="cell4_0" to="cell4_0" priority="1" numLanes="1" speed="100.000000"/>
	<edge id="road88" from="cell4_0" to="cell4_1" priority="1" numLanes="1" speed="100.000000"/>
	<edge id="road89" from="cell4_0" to="cell3_0" priority="1" numLanes="1" speed="100.000000"/>
	<edge id="road90" from="cell4_1" to="cell4_1" priority="1" numLanes="1" speed="100.000000"/>
	<edge id="road91" from="cell4_1" to="cell4_2" priority="1" numLanes="1" speed="100.000000"/>
	<edge id="road92" from="cell4_1" to="cell3_1" priority="1" numLanes="1" speed="100.000000"/>
	<edge id="road93" from="cell4_1" to="cell4_0" priority="1" numLanes="1" speed="100.000000"/>
	<edge id="road94" from="cell4_2" to="cell4_2" priority="1" numLanes="1" speed="100.000000"/>
	<edge id="road95" from="cell4_2" to="cell3_2" priority="1" numLanes="1" speed="100.000000"/>
	<edge id="road96" from="cell4_2" to="cell4_1" priority="1" numLanes="1" speed="100.000000"/>
	<edge id="road97" from="cell4_2" to="cell4_3" priority="1" numLanes="1" speed="100.000000"/>
	<edge id="road98" from="cell4_3" to="cell4_3" priority="1" numLanes="1" speed="100.000000"/>
	<edge id="road99" from="cell4_3" to="cell4_2" priority="1" numLanes="1" speed="100.000000"/>
	<edge id="road100" from="cell4_3" to="cell3_3" priority="1" numLanes="1" speed="100.000000"/>
	<edge id="road101" from="cell4_3" to="cell4_4" priority="1" numLanes="1" speed="100.000000"/>
	<edge id="road102" from="cell4_4" to="cell4_4" priority="1" numLanes="1" speed="100.000000"/>
	<edge id="road103" from="cell4_4" to="cell4_3" priority="1" numLanes="1" speed="100.000000"/>
	<edge id="road104" from="cell4_4" to="cell3_4" priority="1" numLanes="1" speed="100.000000"/>
</edges>