<?xml version="1.0" encoding="UTF-8"?>

<!-- generated on 08/20/19 10:52:11 by Eclipse SUMO netconvert Version v1_0_1+0383-8ba62d898b
<configuration xmlns:xsi="http://www.w3.org/2001/XMLSchema-instance" xsi:noNamespaceSchemaLocation="http://sumo.dlr.de/xsd/netconvertConfiguration.xsd">

    <input>
        <node-files value="./temp/orlando-seg1.1000.nod.xml"/>
        <edge-files value="./temp/orlando-seg1.1000.edg.xml"/>
    </input>

    <output>
        <output-file value="./temp/orlando-seg1.1000.net.xml"/>
    </output>

    <report>
        <verbose value="true"/>
    </report>

</configuration>
-->

<net version="1.0" junctionCornerDetail="5" limitTurnSpeed="5.50" xmlns:xsi="http://www.w3.org/2001/XMLSchema-instance" xsi:noNamespaceSchemaLocation="http://sumo.dlr.de/xsd/net_file.xsd">

    <location netOffset="-1338.78,-1127.18" convBoundary="0.00,0.00,4000.00,4000.00" origBoundary="1338.78,1127.18,5338.78,5127.18" projParameter="!"/>

    <edge id=":cell0_0_0" function="internal">
        <lane id=":cell0_0_0_0" index="0" speed="6.08" length="7.74" shape="3.20,4001.60 1.10,4001.30 -0.40,4000.40 -1.30,3998.90 -1.60,3996.80"/>
    </edge>
    <edge id=":cell0_0_1" function="internal">
        <lane id=":cell0_0_1_0" index="0" speed="3.65" length="2.66" shape="3.20,4001.60 2.00,4000.80 1.60,4000.00 1.74,3999.71"/>
    </edge>
    <edge id=":cell0_0_4" function="internal">
        <lane id=":cell0_0_4_0" index="0" speed="3.65" length="2.01" shape="1.74,3999.71 2.00,3999.20 3.20,3998.40"/>
    </edge>
    <edge id=":cell0_0_2" function="internal">
        <lane id=":cell0_0_2_0" index="0" speed="3.90" length="2.58" shape="1.60,3996.80 1.70,3997.50 2.00,3998.00 2.50,3998.30 3.20,3998.40"/>
    </edge>
    <edge id=":cell0_0_3" function="internal">
        <lane id=":cell0_0_3_0" index="0" speed="3.65" length="2.08" shape="1.60,3996.80 0.80,3998.00 0.23,3998.29"/>
    </edge>
    <edge id=":cell0_0_5" function="internal">
        <lane id=":cell0_0_5_0" index="0" speed="3.65" length="2.59" shape="0.23,3998.29 0.00,3998.40 -0.80,3998.00 -1.60,3996.80"/>
    </edge>
    <edge id=":cell0_1_0" function="internal">
        <lane id=":cell0_1_0_0" index="0" speed="100.00" length="14.40" shape="1007.20,4001.60 992.80,4001.60"/>
    </edge>
    <edge id=":cell0_1_1" function="internal">
        <lane id=":cell0_1_1_0" index="0" speed="8.00" length="5.93" shape="1007.20,4001.60 1003.35,4001.05 1001.60,4000.00"/>
    </edge>
    <edge id=":cell0_1_2" function="internal">
        <lane id=":cell0_1_2_0" index="0" speed="3.65" length="2.34" shape="1007.20,4001.60 1006.00,4000.80 1005.60,4000.00"/>
    </edge>
    <edge id=":cell0_1_9" function="internal">
        <lane id=":cell0_1_9_0" index="0" speed="8.00" length="8.26" shape="1001.60,4000.00 1000.60,3999.40 998.95,3996.65 998.40,3992.80"/>
    </edge>
    <edge id=":cell0_1_10" function="internal">
        <lane id=":cell0_1_10_0" index="0" speed="3.65" length="2.34" shape="1005.60,4000.00 1006.00,3999.20 1007.20,3998.40"/>
    </edge>
    <edge id=":cell0_1_3" function="internal">
        <lane id=":cell0_1_3_0" index="0" speed="6.51" length="9.03" shape="1001.60,3992.80 1001.95,3995.25 1003.00,3997.00 1004.75,3998.05 1007.20,3998.40"/>
    </edge>
    <edge id=":cell0_1_4" function="internal">
        <lane id=":cell0_1_4_0" index="0" speed="8.00" length="14.19" shape="1001.60,3992.80 1001.05,3996.65 999.40,3999.40 996.65,4001.05 992.80,4001.60"/>
    </edge>
    <edge id=":cell0_1_5" function="internal">
        <lane id=":cell0_1_5_0" index="0" speed="3.65" length="4.67" shape="1001.60,3992.80 1000.80,3994.00 1000.00,3994.40 999.20,3994.00 998.40,3992.80"/>
    </edge>
    <edge id=":cell0_1_6" function="internal">
        <lane id=":cell0_1_6_0" index="0" speed="6.51" length="9.03" shape="992.80,3998.40 995.25,3998.05 997.00,3997.00 998.05,3995.25 998.40,3992.80"/>
    </edge>
    <edge id=":cell0_1_7" function="internal">
        <lane id=":cell0_1_7_0" index="0" speed="100.00" length="14.40" shape="992.80,3998.40 1007.20,3998.40"/>
    </edge>
    <edge id=":cell0_1_8" function="internal">
        <lane id=":cell0_1_8_0" index="0" speed="3.65" length="2.34" shape="992.80,3998.40 994.00,3999.20 994.40,4000.00"/>
    </edge>
    <edge id=":cell0_1_11" function="internal">
        <lane id=":cell0_1_11_0" index="0" speed="3.65" length="2.34" shape="994.40,4000.00 994.00,4000.80 992.80,4001.60"/>
    </edge>
    <edge id=":cell0_2_0" function="internal">
        <lane id=":cell0_2_0_0" index="0" speed="100.00" length="14.40" shape="2007.20,4001.60 1992.80,4001.60"/>
    </edge>
    <edge id=":cell0_2_1" function="internal">
        <lane id=":cell0_2_1_0" index="0" speed="8.00" length="5.93" shape="2007.20,4001.60 2003.35,4001.05 2001.60,4000.00"/>
    </edge>
    <edge id=":cell0_2_2" function="internal">
        <lane id=":cell0_2_2_0" index="0" speed="3.65" length="2.34" shape="2007.20,4001.60 2006.00,4000.80 2005.60,4000.00"/>
    </edge>
    <edge id=":cell0_2_9" function="internal">
        <lane id=":cell0_2_9_0" index="0" speed="8.00" length="8.26" shape="2001.60,4000.00 2000.60,3999.40 1998.95,3996.65 1998.40,3992.80"/>
    </edge>
    <edge id=":cell0_2_10" function="internal">
        <lane id=":cell0_2_10_0" index="0" speed="3.65" length="2.34" shape="2005.60,4000.00 2006.00,3999.20 2007.20,3998.40"/>
    </edge>
    <edge id=":cell0_2_3" function="internal">
        <lane id=":cell0_2_3_0" index="0" speed="6.51" length="9.03" shape="2001.60,3992.80 2001.95,3995.25 2003.00,3997.00 2004.75,3998.05 2007.20,3998.40"/>
    </edge>
    <edge id=":cell0_2_4" function="internal">
        <lane id=":cell0_2_4_0" index="0" speed="8.00" length="14.19" shape="2001.60,3992.80 2001.05,3996.65 1999.40,3999.40 1996.65,4001.05 1992.80,4001.60"/>
    </edge>
    <edge id=":cell0_2_5" function="internal">
        <lane id=":cell0_2_5_0" index="0" speed="3.65" length="4.67" shape="2001.60,3992.80 2000.80,3994.00 2000.00,3994.40 1999.20,3994.00 1998.40,3992.80"/>
    </edge>
    <edge id=":cell0_2_6" function="internal">
        <lane id=":cell0_2_6_0" index="0" speed="6.51" length="9.03" shape="1992.80,3998.40 1995.25,3998.05 1997.00,3997.00 1998.05,3995.25 1998.40,3992.80"/>
    </edge>
    <edge id=":cell0_2_7" function="internal">
        <lane id=":cell0_2_7_0" index="0" speed="100.00" length="14.40" shape="1992.80,3998.40 2007.20,3998.40"/>
    </edge>
    <edge id=":cell0_2_8" function="internal">
        <lane id=":cell0_2_8_0" index="0" speed="3.65" length="2.34" shape="1992.80,3998.40 1994.00,3999.20 1994.40,4000.00"/>
    </edge>
    <edge id=":cell0_2_11" function="internal">
        <lane id=":cell0_2_11_0" index="0" speed="3.65" length="2.34" shape="1994.40,4000.00 1994.00,4000.80 1992.80,4001.60"/>
    </edge>
    <edge id=":cell0_3_0" function="internal">
        <lane id=":cell0_3_0_0" index="0" speed="100.00" length="14.40" shape="3007.20,4001.60 2992.80,4001.60"/>
    </edge>
    <edge id=":cell0_3_1" function="internal">
        <lane id=":cell0_3_1_0" index="0" speed="8.00" length="5.93" shape="3007.20,4001.60 3003.35,4001.05 3001.60,4000.00"/>
    </edge>
    <edge id=":cell0_3_2" function="internal">
        <lane id=":cell0_3_2_0" index="0" speed="3.65" length="2.34" shape="3007.20,4001.60 3006.00,4000.80 3005.60,4000.00"/>
    </edge>
    <edge id=":cell0_3_9" function="internal">
        <lane id=":cell0_3_9_0" index="0" speed="8.00" length="8.26" shape="3001.60,4000.00 3000.60,3999.40 2998.95,3996.65 2998.40,3992.80"/>
    </edge>
    <edge id=":cell0_3_10" function="internal">
        <lane id=":cell0_3_10_0" index="0" speed="3.65" length="2.34" shape="3005.60,4000.00 3006.00,3999.20 3007.20,3998.40"/>
    </edge>
    <edge id=":cell0_3_3" function="internal">
        <lane id=":cell0_3_3_0" index="0" speed="6.51" length="9.03" shape="3001.60,3992.80 3001.95,3995.25 3003.00,3997.00 3004.75,3998.05 3007.20,3998.40"/>
    </edge>
    <edge id=":cell0_3_4" function="internal">
        <lane id=":cell0_3_4_0" index="0" speed="8.00" length="14.19" shape="3001.60,3992.80 3001.05,3996.65 2999.40,3999.40 2996.65,4001.05 2992.80,4001.60"/>
    </edge>
    <edge id=":cell0_3_5" function="internal">
        <lane id=":cell0_3_5_0" index="0" speed="3.65" length="4.67" shape="3001.60,3992.80 3000.80,3994.00 3000.00,3994.40 2999.20,3994.00 2998.40,3992.80"/>
    </edge>
    <edge id=":cell0_3_6" function="internal">
        <lane id=":cell0_3_6_0" index="0" speed="6.51" length="9.03" shape="2992.80,3998.40 2995.25,3998.05 2997.00,3997.00 2998.05,3995.25 2998.40,3992.80"/>
    </edge>
    <edge id=":cell0_3_7" function="internal">
        <lane id=":cell0_3_7_0" index="0" speed="100.00" length="14.40" shape="2992.80,3998.40 3007.20,3998.40"/>
    </edge>
    <edge id=":cell0_3_8" function="internal">
        <lane id=":cell0_3_8_0" index="0" speed="3.65" length="2.34" shape="2992.80,3998.40 2994.00,3999.20 2994.40,4000.00"/>
    </edge>
    <edge id=":cell0_3_11" function="internal">
        <lane id=":cell0_3_11_0" index="0" speed="3.65" length="2.34" shape="2994.40,4000.00 2994.00,4000.80 2992.80,4001.60"/>
    </edge>
    <edge id=":cell0_4_0" function="internal">
        <lane id=":cell0_4_0_0" index="0" speed="6.08" length="7.74" shape="4001.60,3996.80 4001.30,3998.90 4000.40,4000.40 3998.90,4001.30 3996.80,4001.60"/>
    </edge>
    <edge id=":cell0_4_1" function="internal">
        <lane id=":cell0_4_1_0" index="0" speed="3.65" length="2.66" shape="4001.60,3996.80 4000.80,3998.00 4000.00,3998.40 3999.71,3998.26"/>
    </edge>
    <edge id=":cell0_4_4" function="internal">
        <lane id=":cell0_4_4_0" index="0" speed="3.65" length="2.01" shape="3999.71,3998.26 3999.20,3998.00 3998.40,3996.80"/>
    </edge>
    <edge id=":cell0_4_2" function="internal">
        <lane id=":cell0_4_2_0" index="0" speed="3.90" length="2.58" shape="3996.80,3998.40 3997.50,3998.30 3998.00,3998.00 3998.30,3997.50 3998.40,3996.80"/>
    </edge>
    <edge id=":cell0_4_3" function="internal">
        <lane id=":cell0_4_3_0" index="0" speed="3.65" length="2.08" shape="3996.80,3998.40 3998.00,3999.20 3998.29,3999.77"/>
    </edge>
    <edge id=":cell0_4_5" function="internal">
        <lane id=":cell0_4_5_0" index="0" speed="3.65" length="2.59" shape="3998.29,3999.77 3998.40,4000.00 3998.00,4000.80 3996.80,4001.60"/>
    </edge>
    <edge id=":cell1_0_0" function="internal">
        <lane id=":cell1_0_0_0" index="0" speed="100.00" length="14.40" shape="-1.60,3007.20 -1.60,2992.80"/>
    </edge>
    <edge id=":cell1_0_1" function="internal">
        <lane id=":cell1_0_1_0" index="0" speed="8.00" length="5.93" shape="-1.60,3007.20 -1.05,3003.35 0.00,3001.60"/>
    </edge>
    <edge id=":cell1_0_2" function="internal">
        <lane id=":cell1_0_2_0" index="0" speed="3.65" length="2.34" shape="-1.60,3007.20 -0.80,3006.00 0.00,3005.60"/>
    </edge>
    <edge id=":cell1_0_9" function="internal">
        <lane id=":cell1_0_9_0" index="0" speed="8.00" length="8.26" shape="0.00,3001.60 0.60,3000.60 3.35,2998.95 7.20,2998.40"/>
    </edge>
    <edge id=":cell1_0_10" function="internal">
        <lane id=":cell1_0_10_0" index="0" speed="3.65" length="2.34" shape="0.00,3005.60 0.80,3006.00 1.60,3007.20"/>
    </edge>
    <edge id=":cell1_0_3" function="internal">
        <lane id=":cell1_0_3_0" index="0" speed="6.51" length="9.03" shape="7.20,3001.60 4.75,3001.95 3.00,3003.00 1.95,3004.75 1.60,3007.20"/>
    </edge>
    <edge id=":cell1_0_4" function="internal">
        <lane id=":cell1_0_4_0" index="0" speed="8.00" length="14.19" shape="7.20,3001.60 3.35,3001.05 0.60,2999.40 -1.05,2996.65 -1.60,2992.80"/>
    </edge>
    <edge id=":cell1_0_5" function="internal">
        <lane id=":cell1_0_5_0" index="0" speed="3.65" length="4.67" shape="7.20,3001.60 6.00,3000.80 5.60,3000.00 6.00,2999.20 7.20,2998.40"/>
    </edge>
    <edge id=":cell1_0_6" function="internal">
        <lane id=":cell1_0_6_0" index="0" speed="6.51" length="9.03" shape="1.60,2992.80 1.95,2995.25 3.00,2997.00 4.75,2998.05 7.20,2998.40"/>
    </edge>
    <edge id=":cell1_0_7" function="internal">
        <lane id=":cell1_0_7_0" index="0" speed="100.00" length="14.40" shape="1.60,2992.80 1.60,3007.20"/>
    </edge>
    <edge id=":cell1_0_8" function="internal">
        <lane id=":cell1_0_8_0" index="0" speed="3.65" length="2.34" shape="1.60,2992.80 0.80,2994.00 0.00,2994.40"/>
    </edge>
    <edge id=":cell1_0_11" function="internal">
        <lane id=":cell1_0_11_0" index="0" speed="3.65" length="2.34" shape="0.00,2994.40 -0.80,2994.00 -1.60,2992.80"/>
    </edge>
    <edge id=":cell1_1_0" function="internal">
        <lane id=":cell1_1_0_0" index="0" speed="6.51" length="9.03" shape="998.40,3007.20 998.05,3004.75 997.00,3003.00 995.25,3001.95 992.80,3001.60"/>
    </edge>
    <edge id=":cell1_1_1" function="internal">
        <lane id=":cell1_1_1_0" index="0" speed="100.00" length="18.93" shape="998.40,3007.20 998.40,2988.27"/>
    </edge>
    <edge id=":cell1_1_2" function="internal">
        <lane id=":cell1_1_2_0" index="0" speed="14.37" length="6.85" shape="998.40,3007.20 998.95,3003.21 1000.00,3000.59"/>
    </edge>
    <edge id=":cell1_1_3" function="internal">
        <lane id=":cell1_1_3_0" index="0" speed="8.94" length="5.08" shape="998.40,3007.20 999.23,3003.35 1000.00,3002.51"/>
    </edge>
    <edge id=":cell1_1_4" function="internal">
        <lane id=":cell1_1_4_0" index="0" speed="3.65" length="2.34" shape="998.40,3007.20 999.20,3006.00 1000.00,3005.60"/>
    </edge>
    <edge id=":cell1_1_25" function="internal">
        <lane id=":cell1_1_25_0" index="0" speed="14.37" length="12.39" shape="1000.00,3000.59 1000.59,2999.11 1003.33,2994.90 1007.16,2990.58"/>
    </edge>
    <edge id=":cell1_1_26" function="internal">
        <lane id=":cell1_1_26_0" index="0" speed="8.94" length="12.91" shape="1000.00,3002.51 1001.73,3000.60 1005.90,2998.95 1011.73,2998.40"/>
    </edge>
    <edge id=":cell1_1_27" function="internal">
        <lane id=":cell1_1_27_0" index="0" speed="3.65" length="2.34" shape="1000.00,3005.60 1000.80,3006.00 1001.60,3007.20"/>
    </edge>
    <edge id=":cell1_1_5" function="internal">
        <lane id=":cell1_1_5_0" index="0" speed="7.65" length="12.89" shape="1011.73,3001.60 1007.30,3001.95 1004.13,3003.00 1002.23,3004.75 1001.60,3007.20"/>
    </edge>
    <edge id=":cell1_1_6" function="internal">
        <lane id=":cell1_1_6_0" index="0" speed="100.00" length="18.93" shape="1011.73,3001.60 992.80,3001.60"/>
    </edge>
    <edge id=":cell1_1_7" function="internal">
        <lane id=":cell1_1_7_0" index="0" speed="9.73" length="21.49" shape="1011.73,3001.60 1005.90,3000.77 1001.73,2998.27 999.23,2994.10 998.40,2988.27"/>
    </edge>
    <edge id=":cell1_1_8" function="internal">
        <lane id=":cell1_1_8_0" index="0" speed="7.42" length="19.31" shape="1011.73,3001.60 1005.59,3000.91 1002.79,2998.84 1003.31,2995.40 1007.16,2990.58"/>
    </edge>
    <edge id=":cell1_1_9" function="internal">
        <lane id=":cell1_1_9_0" index="0" speed="3.65" length="4.67" shape="1011.73,3001.60 1010.53,3000.80 1010.13,3000.00 1010.53,2999.20 1011.73,2998.40"/>
    </edge>
    <edge id=":cell1_1_10" function="internal">
        <lane id=":cell1_1_10_0" index="0" speed="5.47" length="9.74" shape="1009.42,2992.84 1007.48,2995.27 1007.22,2997.01 1008.63,2998.05 1011.73,2998.40"/>
    </edge>
    <edge id=":cell1_1_11" function="internal">
        <lane id=":cell1_1_11_0" index="0" speed="13.42" length="16.74" shape="1009.42,2992.84 1006.00,2996.67 1003.56,3000.34 1002.09,3003.85 1001.60,3007.20"/>
    </edge>
    <edge id=":cell1_1_12" function="internal">
        <lane id=":cell1_1_12_0" index="0" speed="14.31" length="19.09" shape="1009.42,2992.84 1006.04,2995.70 1001.66,2998.55 997.01,3000.73 992.80,3001.60"/>
    </edge>
    <edge id=":cell1_1_13" function="internal">
        <lane id=":cell1_1_13_0" index="0" speed="7.42" length="19.31" shape="1009.42,2992.84 1004.60,2996.69 1001.16,2997.21 999.09,2994.41 998.40,2988.27"/>
    </edge>
    <edge id=":cell1_1_14" function="internal">
        <lane id=":cell1_1_14_0" index="0" speed="3.65" length="4.67" shape="1009.42,2992.84 1008.01,2993.12 1007.16,2992.84 1006.88,2991.99 1007.16,2990.58"/>
    </edge>
    <edge id=":cell1_1_15" function="internal">
        <lane id=":cell1_1_15_0" index="0" speed="5.47" length="9.74" shape="1001.60,2988.27 1001.95,2991.37 1002.99,2992.78 1004.73,2992.52 1007.16,2990.58"/>
    </edge>
    <edge id=":cell1_1_16" function="internal">
        <lane id=":cell1_1_16_0" index="0" speed="8.54" length="16.33" shape="1001.60,2988.27 1002.23,2992.70 1004.13,2995.87 1007.30,2997.77 1011.73,2998.40"/>
    </edge>
    <edge id=":cell1_1_17" function="internal">
        <lane id=":cell1_1_17_0" index="0" speed="100.00" length="18.93" shape="1001.60,2988.27 1001.60,3007.20"/>
    </edge>
    <edge id=":cell1_1_18" function="internal">
        <lane id=":cell1_1_18_0" index="0" speed="8.94" length="8.71" shape="1001.60,2988.27 1001.05,2994.10 1000.00,2996.75"/>
    </edge>
    <edge id=":cell1_1_19" function="internal">
        <lane id=":cell1_1_19_0" index="0" speed="3.65" length="2.34" shape="1001.60,2988.27 1000.80,2989.47 1000.00,2989.87"/>
    </edge>
    <edge id=":cell1_1_28" function="internal">
        <lane id=":cell1_1_28_0" index="0" speed="8.94" length="9.28" shape="1000.00,2996.75 999.40,2998.27 996.65,3000.77 992.80,3001.60"/>
    </edge>
    <edge id=":cell1_1_29" function="internal">
        <lane id=":cell1_1_29_0" index="0" speed="3.65" length="2.34" shape="1000.00,2989.87 999.20,2989.47 998.40,2988.27"/>
    </edge>
    <edge id=":cell1_1_20" function="internal">
        <lane id=":cell1_1_20_0" index="0" speed="7.65" length="12.89" shape="992.80,2998.40 995.25,2997.77 997.00,2995.87 998.05,2992.70 998.40,2988.27"/>
    </edge>
    <edge id=":cell1_1_21" function="internal">
        <lane id=":cell1_1_21_0" index="0" speed="13.40" length="16.68" shape="992.80,2998.40 996.66,2997.67 1000.53,2995.81 1004.13,2993.29 1007.16,2990.58"/>
    </edge>
    <edge id=":cell1_1_22" function="internal">
        <lane id=":cell1_1_22_0" index="0" speed="100.00" length="18.93" shape="992.80,2998.40 1011.73,2998.40"/>
    </edge>
    <edge id=":cell1_1_23" function="internal">
        <lane id=":cell1_1_23_0" index="0" speed="8.00" length="14.19" shape="992.80,2998.40 996.65,2998.95 999.40,3000.60 1001.05,3003.35 1001.60,3007.20"/>
    </edge>
    <edge id=":cell1_1_24" function="internal">
        <lane id=":cell1_1_24_0" index="0" speed="3.65" length="4.67" shape="992.80,2998.40 994.00,2999.20 994.40,3000.00 994.00,3000.80 992.80,3001.60"/>
    </edge>
    <edge id=":cell1_2_0" function="internal">
        <lane id=":cell1_2_0_0" index="0" speed="6.51" length="9.03" shape="1998.40,3007.20 1998.05,3004.75 1997.00,3003.00 1995.25,3001.95 1992.80,3001.60"/>
    </edge>
    <edge id=":cell1_2_1" function="internal">
        <lane id=":cell1_2_1_0" index="0" speed="100.00" length="14.40" shape="1998.40,3007.20 1998.40,2992.80"/>
    </edge>
    <edge id=":cell1_2_2" function="internal">
        <lane id=":cell1_2_2_0" index="0" speed="8.00" length="5.93" shape="1998.40,3007.20 1998.95,3003.35 2000.00,3001.60"/>
    </edge>
    <edge id=":cell1_2_3" function="internal">
        <lane id=":cell1_2_3_0" index="0" speed="3.65" length="2.34" shape="1998.40,3007.20 1999.20,3006.00 2000.00,3005.60"/>
    </edge>
    <edge id=":cell1_2_16" function="internal">
        <lane id=":cell1_2_16_0" index="0" speed="8.00" length="8.26" shape="2000.00,3001.60 2000.60,3000.60 2003.35,2998.95 2007.20,2998.40"/>
    </edge>
    <edge id=":cell1_2_17" function="internal">
        <lane id=":cell1_2_17_0" index="0" speed="3.65" length="2.34" shape="2000.00,3005.60 2000.80,3006.00 2001.60,3007.20"/>
    </edge>
    <edge id=":cell1_2_4" function="internal">
        <lane id=":cell1_2_4_0" index="0" speed="6.51" length="9.03" shape="2007.20,3001.60 2004.75,3001.95 2003.00,3003.00 2001.95,3004.75 2001.60,3007.20"/>
    </edge>
    <edge id=":cell1_2_5" function="internal">
        <lane id=":cell1_2_5_0" index="0" speed="100.00" length="14.40" shape="2007.20,3001.60 1992.80,3001.60"/>
    </edge>
    <edge id=":cell1_2_6" function="internal">
        <lane id=":cell1_2_6_0" index="0" speed="8.00" length="14.19" shape="2007.20,3001.60 2003.35,3001.05 2000.60,2999.40 1998.95,2996.65 1998.40,2992.80"/>
    </edge>
    <edge id=":cell1_2_7" function="internal">
        <lane id=":cell1_2_7_0" index="0" speed="3.65" length="4.67" shape="2007.20,3001.60 2006.00,3000.80 2005.60,3000.00 2006.00,2999.20 2007.20,2998.40"/>
    </edge>
    <edge id=":cell1_2_8" function="internal">
        <lane id=":cell1_2_8_0" index="0" speed="6.51" length="9.03" shape="2001.60,2992.80 2001.95,2995.25 2003.00,2997.00 2004.75,2998.05 2007.20,2998.40"/>
    </edge>
    <edge id=":cell1_2_9" function="internal">
        <lane id=":cell1_2_9_0" index="0" speed="100.00" length="14.40" shape="2001.60,2992.80 2001.60,3007.20"/>
    </edge>
    <edge id=":cell1_2_10" function="internal">
        <lane id=":cell1_2_10_0" index="0" speed="8.00" length="5.93" shape="2001.60,2992.80 2001.05,2996.65 2000.00,2998.40"/>
    </edge>
    <edge id=":cell1_2_11" function="internal">
        <lane id=":cell1_2_11_0" index="0" speed="3.65" length="2.34" shape="2001.60,2992.80 2000.80,2994.00 2000.00,2994.40"/>
    </edge>
    <edge id=":cell1_2_18" function="internal">
        <lane id=":cell1_2_18_0" index="0" speed="8.00" length="8.26" shape="2000.00,2998.40 1999.40,2999.40 1996.65,3001.05 1992.80,3001.60"/>
    </edge>
    <edge id=":cell1_2_19" function="internal">
        <lane id=":cell1_2_19_0" index="0" speed="3.65" length="2.34" shape="2000.00,2994.40 1999.20,2994.00 1998.40,2992.80"/>
    </edge>
    <edge id=":cell1_2_12" function="internal">
        <lane id=":cell1_2_12_0" index="0" speed="6.51" length="9.03" shape="1992.80,2998.40 1995.25,2998.05 1997.00,2997.00 1998.05,2995.25 1998.40,2992.80"/>
    </edge>
    <edge id=":cell1_2_13" function="internal">
        <lane id=":cell1_2_13_0" index="0" speed="100.00" length="14.40" shape="1992.80,2998.40 2007.20,2998.40"/>
    </edge>
    <edge id=":cell1_2_14" function="internal">
        <lane id=":cell1_2_14_0" index="0" speed="8.00" length="14.19" shape="1992.80,2998.40 1996.65,2998.95 1999.40,3000.60 2001.05,3003.35 2001.60,3007.20"/>
    </edge>
    <edge id=":cell1_2_15" function="internal">
        <lane id=":cell1_2_15_0" index="0" speed="3.65" length="4.67" shape="1992.80,2998.40 1994.00,2999.20 1994.40,3000.00 1994.00,3000.80 1992.80,3001.60"/>
    </edge>
    <edge id=":cell1_3_0" function="internal">
        <lane id=":cell1_3_0_0" index="0" speed="6.51" length="9.03" shape="2998.40,3007.20 2998.05,3004.75 2997.00,3003.00 2995.25,3001.95 2992.80,3001.60"/>
    </edge>
    <edge id=":cell1_3_1" function="internal">
        <lane id=":cell1_3_1_0" index="0" speed="100.00" length="14.40" shape="2998.40,3007.20 2998.40,2992.80"/>
    </edge>
    <edge id=":cell1_3_2" function="internal">
        <lane id=":cell1_3_2_0" index="0" speed="8.00" length="5.93" shape="2998.40,3007.20 2998.95,3003.35 3000.00,3001.60"/>
    </edge>
    <edge id=":cell1_3_3" function="internal">
        <lane id=":cell1_3_3_0" index="0" speed="3.65" length="2.34" shape="2998.40,3007.20 2999.20,3006.00 3000.00,3005.60"/>
    </edge>
    <edge id=":cell1_3_16" function="internal">
        <lane id=":cell1_3_16_0" index="0" speed="8.00" length="8.26" shape="3000.00,3001.60 3000.60,3000.60 3003.35,2998.95 3007.20,2998.40"/>
    </edge>
    <edge id=":cell1_3_17" function="internal">
        <lane id=":cell1_3_17_0" index="0" speed="3.65" length="2.34" shape="3000.00,3005.60 3000.80,3006.00 3001.60,3007.20"/>
    </edge>
    <edge id=":cell1_3_4" function="internal">
        <lane id=":cell1_3_4_0" index="0" speed="6.51" length="9.03" shape="3007.20,3001.60 3004.75,3001.95 3003.00,3003.00 3001.95,3004.75 3001.60,3007.20"/>
    </edge>
    <edge id=":cell1_3_5" function="internal">
        <lane id=":cell1_3_5_0" index="0" speed="100.00" length="14.40" shape="3007.20,3001.60 2992.80,3001.60"/>
    </edge>
    <edge id=":cell1_3_6" function="internal">
        <lane id=":cell1_3_6_0" index="0" speed="8.00" length="14.19" shape="3007.20,3001.60 3003.35,3001.05 3000.60,2999.40 2998.95,2996.65 2998.40,2992.80"/>
    </edge>
    <edge id=":cell1_3_7" function="internal">
        <lane id=":cell1_3_7_0" index="0" speed="3.65" length="4.67" shape="3007.20,3001.60 3006.00,3000.80 3005.60,3000.00 3006.00,2999.20 3007.20,2998.40"/>
    </edge>
    <edge id=":cell1_3_8" function="internal">
        <lane id=":cell1_3_8_0" index="0" speed="6.51" length="9.03" shape="3001.60,2992.80 3001.95,2995.25 3003.00,2997.00 3004.75,2998.05 3007.20,2998.40"/>
    </edge>
    <edge id=":cell1_3_9" function="internal">
        <lane id=":cell1_3_9_0" index="0" speed="100.00" length="14.40" shape="3001.60,2992.80 3001.60,3007.20"/>
    </edge>
    <edge id=":cell1_3_10" function="internal">
        <lane id=":cell1_3_10_0" index="0" speed="8.00" length="5.93" shape="3001.60,2992.80 3001.05,2996.65 3000.00,2998.40"/>
    </edge>
    <edge id=":cell1_3_11" function="internal">
        <lane id=":cell1_3_11_0" index="0" speed="3.65" length="2.34" shape="3001.60,2992.80 3000.80,2994.00 3000.00,2994.40"/>
    </edge>
    <edge id=":cell1_3_18" function="internal">
        <lane id=":cell1_3_18_0" index="0" speed="8.00" length="8.26" shape="3000.00,2998.40 2999.40,2999.40 2996.65,3001.05 2992.80,3001.60"/>
    </edge>
    <edge id=":cell1_3_19" function="internal">
        <lane id=":cell1_3_19_0" index="0" speed="3.65" length="2.34" shape="3000.00,2994.40 2999.20,2994.00 2998.40,2992.80"/>
    </edge>
    <edge id=":cell1_3_12" function="internal">
        <lane id=":cell1_3_12_0" index="0" speed="6.51" length="9.03" shape="2992.80,2998.40 2995.25,2998.05 2997.00,2997.00 2998.05,2995.25 2998.40,2992.80"/>
    </edge>
    <edge id=":cell1_3_13" function="internal">
        <lane id=":cell1_3_13_0" index="0" speed="100.00" length="14.40" shape="2992.80,2998.40 3007.20,2998.40"/>
    </edge>
    <edge id=":cell1_3_14" function="internal">
        <lane id=":cell1_3_14_0" index="0" speed="8.00" length="14.19" shape="2992.80,2998.40 2996.65,2998.95 2999.40,3000.60 3001.05,3003.35 3001.60,3007.20"/>
    </edge>
    <edge id=":cell1_3_15" function="internal">
        <lane id=":cell1_3_15_0" index="0" speed="3.65" length="4.67" shape="2992.80,2998.40 2994.00,2999.20 2994.40,3000.00 2994.00,3000.80 2992.80,3001.60"/>
    </edge>
    <edge id=":cell1_4_0" function="internal">
        <lane id=":cell1_4_0_0" index="0" speed="6.51" length="9.03" shape="3998.40,3007.20 3998.05,3004.75 3997.00,3003.00 3995.25,3001.95 3992.80,3001.60"/>
    </edge>
    <edge id=":cell1_4_1" function="internal">
        <lane id=":cell1_4_1_0" index="0" speed="100.00" length="14.40" shape="3998.40,3007.20 3998.40,2992.80"/>
    </edge>
    <edge id=":cell1_4_2" function="internal">
        <lane id=":cell1_4_2_0" index="0" speed="3.65" length="2.34" shape="3998.40,3007.20 3999.20,3006.00 4000.00,3005.60"/>
    </edge>
    <edge id=":cell1_4_9" function="internal">
        <lane id=":cell1_4_9_0" index="0" speed="3.65" length="2.34" shape="4000.00,3005.60 4000.80,3006.00 4001.60,3007.20"/>
    </edge>
    <edge id=":cell1_4_3" function="internal">
        <lane id=":cell1_4_3_0" index="0" speed="100.00" length="14.40" shape="4001.60,2992.80 4001.60,3007.20"/>
    </edge>
    <edge id=":cell1_4_4" function="internal">
        <lane id=":cell1_4_4_0" index="0" speed="8.00" length="5.93" shape="4001.60,2992.80 4001.05,2996.65 4000.00,2998.40"/>
    </edge>
    <edge id=":cell1_4_5" function="internal">
        <lane id=":cell1_4_5_0" index="0" speed="3.65" length="2.34" shape="4001.60,2992.80 4000.80,2994.00 4000.00,2994.40"/>
    </edge>
    <edge id=":cell1_4_10" function="internal">
        <lane id=":cell1_4_10_0" index="0" speed="8.00" length="8.26" shape="4000.00,2998.40 3999.40,2999.40 3996.65,3001.05 3992.80,3001.60"/>
    </edge>
    <edge id=":cell1_4_11" function="internal">
        <lane id=":cell1_4_11_0" index="0" speed="3.65" length="2.34" shape="4000.00,2994.40 3999.20,2994.00 3998.40,2992.80"/>
    </edge>
    <edge id=":cell1_4_6" function="internal">
        <lane id=":cell1_4_6_0" index="0" speed="6.51" length="9.03" shape="3992.80,2998.40 3995.25,2998.05 3997.00,2997.00 3998.05,2995.25 3998.40,2992.80"/>
    </edge>
    <edge id=":cell1_4_7" function="internal">
        <lane id=":cell1_4_7_0" index="0" speed="8.00" length="14.19" shape="3992.80,2998.40 3996.65,2998.95 3999.40,3000.60 4001.05,3003.35 4001.60,3007.20"/>
    </edge>
    <edge id=":cell1_4_8" function="internal">
        <lane id=":cell1_4_8_0" index="0" speed="3.65" length="4.67" shape="3992.80,2998.40 3994.00,2999.20 3994.40,3000.00 3994.00,3000.80 3992.80,3001.60"/>
    </edge>
    <edge id=":cell2_0_0" function="internal">
        <lane id=":cell2_0_0_0" index="0" speed="100.00" length="14.40" shape="-1.60,2007.20 -1.60,1992.80"/>
    </edge>
    <edge id=":cell2_0_1" function="internal">
        <lane id=":cell2_0_1_0" index="0" speed="8.00" length="5.93" shape="-1.60,2007.20 -1.05,2003.35 0.00,2001.60"/>
    </edge>
    <edge id=":cell2_0_2" function="internal">
        <lane id=":cell2_0_2_0" index="0" speed="3.65" length="2.34" shape="-1.60,2007.20 -0.80,2006.00 0.00,2005.60"/>
    </edge>
    <edge id=":cell2_0_9" function="internal">
        <lane id=":cell2_0_9_0" index="0" speed="8.00" length="8.26" shape="0.00,2001.60 0.60,2000.60 3.35,1998.95 7.20,1998.40"/>
    </edge>
    <edge id=":cell2_0_10" function="internal">
        <lane id=":cell2_0_10_0" index="0" speed="3.65" length="2.34" shape="0.00,2005.60 0.80,2006.00 1.60,2007.20"/>
    </edge>
    <edge id=":cell2_0_3" function="internal">