<nodes>
	<node id="cell0_0" x="1338.780000" y="5127.180000" type="priority"/>
	<node id="cell0_1" x="2338.780000" y="5127.180000" type="priority"/>
	<node id="cell0_2" x="3338.780000" y="5127.180000" type="priority"/>
	<node id="cell0_3" x="4338.780000" y="5127.180000" type="priority"/>
	<node id="cell0_4" x="5338.780000" y="5127.180000" type="priority"/>
	<node id="cell1_0" x="1338.780000" y="4127.180000" type="priority"/>
	<node id="cell1_1" x="2338.780000" y="4127.180000" type="priority"/>
	<node id="cell1_2" x="3338.780000" y="4127.180000" type="priority"/>
	<node id="cell1_3" x="4338.780000" y="4127.180000" type="priority"/>
	<node id="cell1_4" x="5338.780000" y="4127.180000" type="priority"/>
	<node id="cell2_0" x="1338.780000" y="3127.180000" type="priority"/>
	<node id="cell2_1" x="2338.780000" y="3127.180000" type="priority"/>
	<node id="cell2_2" x="3338.780000" y="3127.180000" type="priority"/>
	<node id="cell2_3" x="4338.780000" y="3127.180000" type="priority"/>
	<node id="cell2_4" x="5338.780000" y="3127.180000" type="priority"/>
	<node id="cell3_0" x="1338.780000" y="2127.180000" type="priority"/>
	<node id="cell3_1" x="2338.780000" y="2127.180000" type="priority"/>
	<node id="cell3_2" x="3338.780000" y="2127.180000" type="priority"/>
	<node id="cell3_3" x="4338.780000" y="2127.180000" type="priority"/>
	<node id="cell3_4" x="5338.780000" y="2127.180000" type="priority"/>
	<node id="cell4_0" x="1338.780000" y="1127.180000" type="priority"/>
	<node id="cell4_1" x="2338.780000" y="1127.180000" type="priority"/>
	<node id="cell4_2" x="3338.780000" y="1127.180000" type="priority"/>
	<node id="cell4_3" x="4338.780000" y="1127.180000" type="priority"/>
	<node id="cell4_4" x="5338.780000" y="1127.180000" type="priority"/>
</nodes>