<nodes>
	<node id="cell0_0" x="3477.565000" y="14992.200000" type="priority"/>
	<node id="cell0_1" x="3577.565000" y="14992.200000" type="priority"/>
	<node id="cell0_2" x="3677.565000" y="14992.200000" type="priority"/>
	<node id="cell0_3" x="3777.565000" y="14992.200000" type="priority"/>
	<node id="cell0_4" x="3877.565000" y="14992.200000" type="priority"/>
	<node id="cell0_5" x="3977.565000" y="14992.200000" type="priority"/>
	<node id="cell0_6" x="4077.565000" y="14992.200000" type="priority"/>
	<node id="cell0_7" x="4177.565000" y="14992.200000" type="priority"/>
	<node id="cell0_8" x="4277.565000" y="14992.200000" type="priority"/>
	<node id="cell0_9" x="4377.565000" y="14992.200000" type="priority"/>
	<node id="cell0_10" x="4477.565000" y="14992.200000" type="priority"/>
	<node id="cell0_11" x="4577.565000" y="14992.200000" type="priority"/>
	<node id="cell0_12" x="4677.565000" y="14992.200000" type="priority"/>
	<node id="cell0_13" x="4777.565000" y="14992.200000" type="priority"/>
	<node id="cell0_14" x="4877.565000" y="14992.200000" type="priority"/>
	<node id="cell0_15" x="4977.565000" y="14992.200000" type="priority"/>
	<node id="cell0_16" x="5077.565000" y="14992.200000" type="priority"/>
	<node id="cell0_17" x="5177.565000" y="14992.200000" type="priority"/>
	<node id="cell0_18" x="5277.565000" y="14992.200000" type="priority"/>
	<node id="cell0_19" x="5377.565000" y="14992.200000" type="priority"/>
	<node id="cell0_20" x="5477.565000" y="14992.200000" type="priority"/>
	<node id="cell0_21" x="5577.565000" y="14992.200000" type="priority"/>
	<node id="cell0_22" x="5677.565000" y="14992.200000" type="priority"/>
	<node id="cell0_23" x="5777.565000" y="14992.200000" type="priority"/>
	<node id="cell0_24" x="5877.565000" y="14992.200000" type="priority"/>
	<node id="cell0_25" x="5977.565000" y="14992.200000" type="priority"/>
	<node id="cell0_26" x="6077.565000" y="14992.200000" type="priority"/>
	<node id="cell0_27" x="6177.565000" y="14992.200000" type="priority"/>
	<node id="cell0_28" x="6277.565000" y="14992.200000" type="priority"/>
	<node id="cell0_29" x="6377.565000" y="14992.200000" type="priority"/>
	<node id="cell0_30" x="6477.565000" y="14992.200000" type="priority"/>
	<node id="cell0_31" x="6577.565000" y="14992.200000" type="priority"/>
	<node id="cell0_32" x="6677.565000" y="14992.200000" type="priority"/>
	<node id="cell0_33" x="6777.565000" y="14992.200000" type="priority"/>
	<node id="cell0_34" x="6877.565000" y="14992.200000" type="priority"/>
	<node id="cell0_35" x="6977.565000" y="14992.200000" type="priority"/>
	<node id="cell0_36" x="7077.565000" y="14992.200000" type="priority"/>
	<node id="cell0_37" x="7177.565000" y="14992.200000" type="priority"/>
	<node id="cell0_38" x="7277.565000" y="14992.200000" type="priority"/>
	<node id="cell0_39" x="7377.565000" y="14992.200000" type="priority"/>
	<node id="cell0_40" x="7477.565000" y="14992.200000" type="priority"/>
	<node id="cell0_41" x="7577.565000" y="14992.200000" type="priority"/>
	<node id="cell0_42" x="7677.565000" y="14992.200000" type="priority"/>
	<node id="cell0_43" x="7777.565000" y="14992.200000" type="priority"/>
	<node id="cell0_44" x="7877.565000" y="14992.200000" type="priority"/>
	<node id="cell0_45" x="7977.565000" y="14992.200000" type="priority"/>
	<node id="cell0_46" x="8077.565000" y="14992.200000" type="priority"/>
	<node id="cell0_47" x="8177.565000" y="14992.200000" type="priority"/>
	<node id="cell0_48" x="8277.565000" y="14992.200000" type="priority"/>
	<node id="cell0_49" x="8377.565000" y="14992.200000" type="priority"/>
	<node id="cell0_50" x="8477.565000" y="14992.200000" type="priority"/>
	<node id="cell0_51" x="8577.565000" y="14992.200000" type="priority"/>
	<node id="cell0_52" x="8677.565000" y="14992.200000" type="priority"/>
	<node id="cell0_53" x="8777.565000" y="14992.200000" type="priority"/>
	<node id="cell0_54" x="8877.565000" y="14992.200000" type="priority"/>
	<node id="cell0_55" x="8977.565000" y="14992.200000" type="priority"/>
	<node id="cell0_56" x="9077.565000" y="14992.200000" type="priority"/>
	<node id="cell0_57" x="9177.565000" y="14992.200000" type="priority"/>
	<node id="cell0_58" x="9277.565000" y="14992.200000" type="priority"/>
	<node id="cell0_59" x="9377.565000" y="14992.200000" type="priority"/>
	<node id="cell0_60" x="9477.565000" y="14992.200000" type="priority"/>
	<node id="cell0_61" x="9577.565000" y="14992.200000" type="priority"/>
	<node id="cell0_62" x="9677.565000" y="14992.200000" type="priority"/>
	<node id="cell0_63" x="9777.565000" y="14992.200000" type="priority"/>
	<node id="cell0_64" x="9877.565000" y="14992.200000" type="priority"/>
	<node id="cell0_65" x="9977.565000" y="14992.200000" type="priority"/>
	<node id="cell0_66" x="10077.565000" y="14992.200000" type="priority"/>
	<node id="cell0_67" x="10177.565000" y="14992.200000" type="priority"/>
	<node id="cell0_68" x="10277.565000" y="14992.200000" type="priority"/>
	<node id="cell0_69" x="10377.565000" y="14992.200000" type="priority"/>
	<node id="cell0_70" x="10477.565000" y="14992.200000" type="priority"/>
	<node id="cell0_71" x="10577.565000" y="14992.200000" type="priority"/>
	<node id="cell0_72" x="10677.565000" y="14992.200000" type="priority"/>
	<node id="cell0_73" x="10777.565000" y="14992.200000" type="priority"/>
	<node id="cell0_74" x="10877.565000" y="14992.200000" type="priority"/>
	<node id="cell1_0" x="3477.565000" y="14892.200000" type="priority"/>
	<node id="cell1_1" x="3577.565000" y="14892.200000" type="priority"/>
	<node id="cell1_2" x="3677.565000" y="14892.200000" type="priority"/>
	<node id="cell1_3" x="3777.565000" y="14892.200000" type="priority"/>
	<node id="cell1_4" x="3877.565000" y="14892.200000" type="priority"/>
	<node id="cell1_5" x="3977.565000" y="14892.200000" type="priority"/>
	<node id="cell1_6" x="4077.565000" y="14892.200000" type="priority"/>
	<node id="cell1_7" x="4177.565000" y="14892.200000" type="priority"/>
	<node id="cell1_8" x="4277.565000" y="14892.200000" type="priority"/>
	<node id="cell1_9" x="4377.565000" y="14892.200000" type="priority"/>
	<node id="cell1_10" x="4477.565000" y="14892.200000" type="priority"/>
	<node id="cell1_11" x="4577.565000" y="14892.200000" type="priority"/>
	<node id="cell1_12" x="4677.565000" y="14892.200000" type="priority"/>
	<node id="cell1_13" x="4777.565000" y="14892.200000" type="priority"/>
	<node id="cell1_14" x="4877.565000" y="14892.200000" type="priority"/>
	<node id="cell1_15" x="4977.565000" y="14892.200000" type="priority"/>
	<node id="cell1_16" x="5077.565000" y="14892.200000" type="priority"/>
	<node id="cell1_17" x="5177.565000" y="14892.200000" type="priority"/>
	<node id="cell1_18" x="5277.565000" y="14892.200000" type="priority"/>
	<node id="cell1_19" x="5377.565000" y="14892.200000" type="priority"/>
	<node id="cell1_20" x="5477.565000" y="14892.200000" type="priority"/>
	<node id="cell1_21" x="5577.565000" y="14892.200000" type="priority"/>
	<node id="cell1_22" x="5677.565000" y="14892.200000" type="priority"/>
	<node id="cell1_23" x="5777.565000" y="14892.200000" type="priority"/>
	<node id="cell1_24" x="5877.565000" y="14892.200000" type="priority"/>
	<node id="cell1_25" x="5977.565000" y="14892.200000" type="priority"/>
	<node id="cell1_26" x="6077.565000" y="14892.200000" type="priority"/>
	<node id="cell1_27" x="6177.565000" y="14892.200000" type="priority"/>
	<node id="cell1_28" x="6277.565000" y="14892.200000" type="priority"/>
	<node id="cell1_29" x="6377.565000" y="14892.200000" type="priority"/>
	<node id="cell1_30" x="6477.565000" y="14892.200000" type="priority"/>
	<node id="cell1_31" x="6577.565000" y="14892.200000" type="priority"/>
	<node id="cell1_32" x="6677.565000" y="14892.200000" type="priority"/>
	<node id="cell1_33" x="6777.565000" y="14892.200000" type="priority"/>
	<node id="cell1_34" x="6877.565000" y="14892.200000" type="priority"/>
	<node id="cell1_35" x="6977.565000" y="14892.200000" type="priority"/>
	<node id="cell1_36" x="7077.565000" y="14892.200000" type="priority"/>
	<node id="cell1_37" x="7177.565000" y="14892.200000" type="priority"/>
	<node id="cell1_38" x="7277.565000" y="14892.200000" type="priority"/>
	<node id="cell1_39" x="7377.565000" y="14892.200000" type="priority"/>
	<node id="cell1_40" x="7477.565000" y="14892.200000" type="priority"/>
	<node id="cell1_41" x="7577.565000" y="14892.200000" type="priority"/>
	<node id="cell1_42" x="7677.565000" y="14892.200000" type="priority"/>
	<node id="cell1_43" x="7777.565000" y="14892.200000" type="priority"/>
	<node id="cell1_44" x="7877.565000" y="14892.200000" type="priority"/>
	<node id="cell1_45" x="7977.565000" y="14892.200000" type="priority"/>
	<node id="cell1_46" x="8077.565000" y="14892.200000" type="priority"/>
	<node id="cell1_47" x="8177.565000" y="14892.200000" type="priority"/>
	<node id="cell1_48" x="8277.565000" y="14892.200000" type="priority"/>
	<node id="cell1_49" x="8377.565000" y="14892.200000" type="priority"/>
	<node id="cell1_50" x="8477.565000" y="14892.200000" type="priority"/>
	<node id="cell1_51" x="8577.565000" y="14892.200000" type="priority"/>
	<node id="cell1_52" x="8677.565000" y="14892.200000" type="priority"/>
	<node id="cell1_53" x="8777.565000" y="14892.200000" type="priority"/>
	<node id="cell1_54" x="8877.565000" y="14892.200000" type="priority"/>
	<node id="cell1_55" x="8977.565000" y="14892.200000" type="priority"/>
	<node id="cell1_56" x="9077.565000" y="14892.200000" type="priority"/>
	<node id="cell1_57" x="9177.565000" y="14892.200000" type="priority"/>
	<node id="cell1_58" x="9277.565000" y="14892.200000" type="priority"/>
	<node id="cell1_59" x="9377.565000" y="14892.200000" type="priority"/>
	<node id="cell1_60" x="9477.565000" y="14892.200000" type="priority"/>
	<node id="cell1_61" x="9577.565000" y="14892.200000" type="priority"/>
	<node id="cell1_62" x="9677.565000" y="14892.200000" type="priority"/>
	<node id="cell1_63" x="9777.565000" y="14892.200000" type="priority"/>
	<node id="cell1_64" x="9877.565000" y="14892.200000" type="priority"/>
	<node id="cell1_65" x="9977.565000" y="14892.200000" type="priority"/>
	<node id="cell1_66" x="10077.565000" y="14892.200000" type="priority"/>
	<node id="cell1_67" x="10177.565000" y="14892.200000" type="priority"/>
	<node id="cell1_68" x="10277.565000" y="14892.200000" type="priority"/>
	<node id="cell1_69" x="10377.565000" y="14892.200000" type="priority"/>
	<node id="cell1_70" x="10477.565000" y="14892.200000" type="priority"/>
	<node id="cell1_71" x="10577.565000" y="14892.200000" type="priority"/>
	<node id="cell1_72" x="10677.565000" y="14892.200000" type="priority"/>
	<node id="cell1_73" x="10777.565000" y="14892.200000" type="priority"/>
	<node id="cell1_74" x="10877.565000" y="14892.200000" type="priority"/>
	<node id="cell2_0" x="3477.565000" y="14792.200000" type="priority"/>
	<node id="cell2_1" x="3577.565000" y="14792.200000" type="priority"/>
	<node id="cell2_2" x="3677.565000" y="14792.200000" type="priority"/>
	<node id="cell2_3" x="3777.565000" y="14792.200000" type="priority"/>
	<node id="cell2_4" x="3877.565000" y="14792.200000" type="priority"/>
	<node id="cell2_5" x="3977.565000" y="14792.200000" type="priority"/>
	<node id="cell2_6" x="4077.565000" y="14792.200000" type="priority"/>
	<node id="cell2_7" x="4177.565000" y="14792.200000" type="priority"/>
	<node id="cell2_8" x="4277.565000" y="14792.200000" type="priority"/>
	<node id="cell2_9" x="4377.565000" y="14792.200000" type="priority"/>
	<node id="cell2_10" x="4477.565000" y="14792.200000" type="priority"/>
	<node id="cell2_11" x="4577.565000" y="14792.200000" type="priority"/>
	<node id="cell2_12" x="4677.565000" y="14792.200000" type="priority"/>
	<node id="cell2_13" x="4777.565000" y="14792.200000" type="priority"/>
	<node id="cell2_14" x="4877.565000" y="14792.200000" type="priority"/>
	<node id="cell2_15" x="4977.565000" y="14792.200000" type="priority"/>
	<node id="cell2_16" x="5077.565000" y="14792.200000" type="priority"/>
	<node id="cell2_17" x="5177.565000" y="14792.200000" type="priority"/>
	<node id="cell2_18" x="5277.565000" y="14792.200000" type="priority"/>
	<node id="cell2_19" x="5377.565000" y="14792.200000" type="priority"/>
	<node id="cell2_20" x="5477.565000" y="14792.200000" type="priority"/>
	<node id="cell2_21" x="5577.565000" y="14792.200000" type="priority"/>
	<node id="cell2_22" x="5677.565000" y="14792.200000" type="priority"/>
	<node id="cell2_23" x="5777.565000" y="14792.200000" type="priority"/>
	<node id="cell2_24" x="5877.565000" y="14792.200000" type="priority"/>
	<node id="cell2_25" x="5977.565000" y="14792.200000" type="priority"/>
	<node id="cell2_26" x="6077.565000" y="14792.200000" type="priority"/>
	<node id="cell2_27" x="6177.565000" y="14792.200000" type="priority"/>
	<node id="cell2_28" x="6277.565000" y="14792.200000" type="priority"/>
	<node id="cell2_29" x="6377.565000" y="14792.200000" type="priority"/>
	<node id="cell2_30" x="6477.565000" y="14792.200000" type="priority"/>
	<node id="cell2_31" x="6577.565000" y="14792.200000" type="priority"/>
	<node id="cell2_32" x="6677.565000" y="14792.200000" type="priority"/>
	<node id="cell2_33" x="6777.565000" y="14792.200000" type="priority"/>
	<node id="cell2_34" x="6877.565000" y="14792.200000" type="priority"/>
	<node id="cell2_35" x="6977.565000" y="14792.200000" type="priority"/>
	<node id="cell2_36" x="7077.565000" y="14792.200000" type="priority"/>
	<node id="cell2_37" x="7177.565000" y="14792.200000" type="priority"/>
	<node id="cell2_38" x="7277.565000" y="14792.200000" type="priority"/>
	<node id="cell2_39" x="7377.565000" y="14792.200000" type="priority"/>
	<node id="cell2_40" x="7477.565000" y="14792.200000" type="priority"/>
	<node id="cell2_41" x="7577.565000" y="14792.200000" type="priority"/>
	<node id="cell2_42" x="7677.565000" y="14792.200000" type="priority"/>
	<node id="cell2_43" x="7777.565000" y="14792.200000" type="priority"/>
	<node id="cell2_44" x="7877.565000" y="14792.200000" type="priority"/>
	<node id="cell2_45" x="7977.565000" y="14792.200000" type="priority"/>
	<node id="cell2_46" x="8077.565000" y="14792.200000" type="priority"/>
	<node id="cell2_47" x="8177.565000" y="14792.200000" type="priority"/>
	<node id="cell2_48" x="8277.565000" y="14792.200000" type="priority"/>
	<node id="cell2_49" x="8377.565000" y="14792.200000" type="priority"/>
	<node id="cell2_50" x="8477.565000" y="14792.200000" type="priority"/>
	<node id="cell2_51" x="8577.565000" y="14792.200000" type="priority"/>
	<node id="cell2_52" x="8677.565000" y="14792.200000" type="priority"/>
	<node id="cell2_53" x="8777.565000" y="14792.200000" type="priority"/>
	<node id="cell2_54" x="8877.565000" y="14792.200000" type="priority"/>
	<node id="cell2_55" x="8977.565000" y="14792.200000" type="priority"/>
	<node id="cell2_56" x="9077.565000" y="14792.200000" type="priority"/>
	<node id="cell2_57" x="9177.565000" y="14792.200000" type="priority"/>
	<node id="cell2_58" x="9277.565000" y="14792.200000" type="priority"/>
	<node id="cell2_59" x="9377.565000" y="14792.200000" type="priority"/>
	<node id="cell2_60" x="9477.565000" y="14792.200000" type="priority"/>
	<node id="cell2_61" x="9577.565000" y="14792.200000" type="priority"/>
	<node id="cell2_62" x="9677.565000" y="14792.200000" type="priority"/>
	<node id="cell2_63" x="9777.565000" y="14792.200000" type="priority"/>
	<node id="cell2_64" x="9877.565000" y="14792.200000" type="priority"/>
	<node id="cell2_65" x="9977.565000" y="14792.200000" type="priority"/>
	<node id="cell2_66" x="10077.565000" y="14792.200000" type="priority"/>
	<node id="cell2_67" x="10177.565000" y="14792.200000" type="priority"/>
	<node id="cell2_68" x="10277.565000" y="14792.200000" type="priority"/>
	<node id="cell2_69" x="10377.565000" y="14792.200000" type="priority"/>
	<node id="cell2_70" x="10477.565000" y="14792.200000" type="priority"/>
	<node id="cell2_71" x="10577.565000" y="14792.200000" type="priority"/>
	<node id="cell2_72" x="10677.565000" y="14792.200000" type="priority"/>
	<node id="cell2_73" x="10777.565000" y="14792.200000" type="priority"/>
	<node id="cell2_74" x="10877.565000" y="14792.200000" type="priority"/>
	<node id="cell3_0" x="3477.565000" y="14692.200000" type="priority"/>
	<node id="cell3_1" x="3577.565000" y="14692.200000" type="priority"/>
	<node id="cell3_2" x="3677.565000" y="14692.200000" type="priority"/>
	<node id="cell3_3" x="3777.565000" y="14692.200000" type="priority"/>
	<node id="cell3_4" x="3877.565000" y="14692.200000" type="priority"/>
	<node id="cell3_5" x="3977.565000" y="14692.200000" type="priority"/>
	<node id="cell3_6" x="4077.565000" y="14692.200000" type="priority"/>
	<node id="cell3_7" x="4177.565000" y="14692.200000" type="priority"/>
	<node id="cell3_8" x="4277.565000" y="14692.200000" type="priority"/>
	<node id="cell3_9" x="4377.565000" y="14692.200000" type="priority"/>
	<node id="cell3_10" x="4477.565000" y="14692.200000" type="priority"/>
	<node id="cell3_11" x="4577.565000" y="14692.200000" type="priority"/>
	<node id="cell3_12" x="4677.565000" y="14692.200000" type="priority"/>
	<node id="cell3_13" x="4777.565000" y="14692.200000" type="priority"/>
	<node id="cell3_14" x="4877.565000" y="14692.200000" type="priority"/>
	<node id="cell3_15" x="4977.565000" y="14692.200000" type="priority"/>
	<node id="cell3_16" x="5077.565000" y="14692.200000" type="priority"/>
	<node id="cell3_17" x="5177.565000" y="14692.200000" type="priority"/>
	<node id="cell3_18" x="5277.565000" y="14692.200000" type="priority"/>
	<node id="cell3_19" x="5377.565000" y="14692.200000" type="priority"/>
	<node id="cell3_20" x="5477.565000" y="14692.200000" type="priority"/>
	<node id="cell3_21" x="5577.565000" y="14692.200000" type="priority"/>
	<node id="cell3_22" x="5677.565000" y="14692.200000" type="priority"/>
	<node id="cell3_23" x="5777.565000" y="14692.200000" type="priority"/>
	<node id="cell3_24" x="5877.565000" y="14692.200000" type="priority"/>
	<node id="cell3_25" x="5977.565000" y="14692.200000" type="priority"/>
	<node id="cell3_26" x="6077.565000" y="14692.200000" type="priority"/>
	<node id="cell3_27" x="6177.565000" y="14692.200000" type="priority"/>
	<node id="cell3_28" x="6277.565000" y="14692.200000" type="priority"/>
	<node id="cell3_29" x="6377.565000" y="14692.200000" type="priority"/>
	<node id="cell3_30" x="6477.565000" y="14692.200000" type="priority"/>
	<node id="cell3_31" x="6577.565000" y="14692.200000" type="priority"/>
	<node id="cell3_32" x="6677.565000" y="14692.200000" type="priority"/>
	<node id="cell3_33" x="6777.565000" y="14692.200000" type="priority"/>
	<node id="cell3_34" x="6877.565000" y="14692.200000" type="priority"/>
	<node id="cell3_35" x="6977.565000" y="14692.200000" type="priority"/>
	<node id="cell3_36" x="7077.565000" y="14692.200000" type="priority"/>
	<node id="cell3_37" x="7177.565000" y="14692.200000" type="priority"/>
	<node id="cell3_38" x="7277.565000" y="14692.200000" type="priority"/>
	<node id="cell3_39" x="7377.565000" y="14692.200000" type="priority"/>
	<node id="cell3_40" x="7477.565000" y="14692.200000" type="priority"/>
	<node id="cell3_41" x="7577.565000" y="14692.200000" type="priority"/>
	<node id="cell3_42" x="7677.565000" y="14692.200000" type="priority"/>
	<node id="cell3_43" x="7777.565000" y="14692.200000" type="priority"/>
	<node id="cell3_44" x="7877.565000" y="14692.200000" type="priority"/>
	<node id="cell3_45" x="7977.565000" y="14692.200000" type="priority"/>
	<node id="cell3_46" x="8077.565000" y="14692.200000" type="priority"/>
	<node id="cell3_47" x="8177.565000" y="14692.200000" type="priority"/>
	<node id="cell3_48" x="8277.565000" y="14692.200000" type="priority"/>
	<node id="cell3_49" x="8377.565000" y="14692.200000" type="priority"/>
	<node id="cell3_50" x="8477.565000" y="14692.200000" type="priority"/>
	<node id="cell3_51" x="8577.565000" y="14692.200000" type="priority"/>
	<node id="cell3_52" x="8677.565000" y="14692.200000" type="priority"/>
	<node id="cell3_53" x="8777.565000" y="14692.200000" type="priority"/>
	<node id="cell3_54" x="8877.565000" y="14692.200000" type="priority"/>
	<node id="cell3_55" x="8977.565000" y="14692.200000" type="priority"/>
	<node id="cell3_56" x="9077.565000" y="14692.200000" type="priority"/>
	<node id="cell3_57" x="9177.565000" y="14692.200000" type="priority"/>
	<node id="cell3_58" x="9277.565000" y="14692.200000" type="priority"/>
	<node id="cell3_59" x="9377.565000" y="14692.200000" type="priority"/>
	<node id="cell3_60" x="9477.565000" y="14692.200000" type="priority"/>
	<node id="cell3_61" x="9577.565000" y="14692.200000" type="priority"/>
	<node id="cell3_62" x="9677.565000" y="14692.200000" type="priority"/>
	<node id="cell3_63" x="9777.565000" y="14692.200000" type="priority"/>
	<node id="cell3_64" x="9877.565000" y="14692.200000" type="priority"/>
	<node id="cell3_65" x="9977.565000" y="14692.200000" type="priority"/>
	<node id="cell3_66" x="10077.565000" y="14692.200000" type="priority"/>
	<node id="cell3_67" x="10177.565000" y="14692.200000" type="priority"/>
	<node id="cell3_68" x="10277.565000" y="14692.200000" type="priority"/>
	<node id="cell3_69" x="10377.565000" y="14692.200000" type="priority"/>
	<node id="cell3_70" x="10477.565000" y="14692.200000" type="priority"/>
	<node id="cell3_71" x="10577.565000" y="14692.200000" type="priority"/>
	<node id="cell3_72" x="10677.565000" y="14692.200000" type="priority"/>
	<node id="cell3_73" x="10777.565000" y="14692.200000" type="priority"/>
	<node id="cell3_74" x="10877.565000" y="14692.200000" type="priority"/>
	<node id="cell4_0" x="3477.565000" y="14592.200000" type="priority"/>
	<node id="cell4_1" x="3577.565000" y="14592.200000" type="priority"/>
	<node id="cell4_2" x="3677.565000" y="14592.200000" type="priority"/>
	<node id="cell4_3" x="3777.565000" y="14592.200000" type="priority"/>
	<node id="cell4_4" x="3877.565000" y="14592.200000" type="priority"/>
	<node id="cell4_5" x="3977.565000" y="14592.200000" type="priority"/>
	<node id="cell4_6" x="4077.565000" y="14592.200000" type="priority"/>
	<node id="cell4_7" x="4177.565000" y="14592.200000" type="priority"/>
	<node id="cell4_8" x="4277.565000" y="14592.200000" type="priority"/>
	<node id="cell4_9" x="4377.565000" y="14592.200000" type="priority"/>
	<node id="cell4_10" x="4477.565000" y="14592.200000" type="priority"/>
	<node id="cell4_11" x="4577.565000" y="14592.200000" type="priority"/>
	<node id="cell4_12" x="4677.565000" y="14592.200000" type="priority"/>
	<node id="cell4_13" x="4777.565000" y="14592.200000" type="priority"/>
	<node id="cell4_14" x="4877.565000" y="14592.200000" type="priority"/>
	<node id="cell4_15" x="4977.565000" y="14592.200000" type="priority"/>
	<node id="cell4_16" x="5077.565000" y="14592.200000" type="priority"/>
	<node id="cell4_17" x="5177.565000" y="14592.200000" type="priority"/>
	<node id="cell4_18" x="5277.565000" y="14592.200000" type="priority"/>
	<node id="cell4_19" x="5377.565000" y="14592.200000" type="priority"/>
	<node id="cell4_20" x="5477.565000" y="14592.200000" type="priority"/>
	<node id="cell4_21" x="5577.565000" y="14592.200000" type="priority"/>
	<node id="cell4_22" x="5677.565000" y="14592.200000" type="priority"/>
	<node id="cell4_23" x="5777.565000" y="14592.200000" type="priority"/>
	<node id="cell4_24" x="5877.565000" y="14592.200000" type="priority"/>
	<node id="cell4_25" x="5977.565000" y="14592.200000" type="priority"/>
	<node id="cell4_26" x="6077.565000" y="14592.200000" type="priority"/>
	<node id="cell4_27" x="6177.565000" y="14592.200000" type="priority"/>
	<node id="cell4_28" x="6277.565000" y="14592.200000" type="priority"/>
	<node id="cell4_29" x="6377.565000" y="14592.200000" type="priority"/>
	<node id="cell4_30" x="6477.565000" y="14592.200000" type="priority"/>
	<node id="cell4_31" x="6577.565000" y="14592.200000" type="priority"/>
	<node id="cell4_32" x="6677.565000" y="14592.200000" type="priority"/>
	<node id="cell4_33" x="6777.565000" y="14592.200000" type="priority"/>
	<node id="cell4_34" x="6877.565000" y="14592.200000" type="priority"/>
	<node id="cell4_35" x="6977.565000" y="14592.200000" type="priority"/>
	<node id="cell4_36" x="7077.565000" y="14592.200000" type="priority"/>
	<node id="cell4_37" x="7177.565000" y="14592.200000" type="priority"/>
	<node id="cell4_38" x="7277.565000" y="14592.200000" type="priority"/>
	<node id="cell4_39" x="7377.565000" y="14592.200000" type="priority"/>
	<node id="cell4_40" x="7477.565000" y="14592.200000" type="priority"/>
	<node id="cell4_41" x="7577.565000" y="14592.200000" type="priority"/>
	<node id="cell4_42" x="7677.565000" y="14592.200000" type="priority"/>
	<node id="cell4_43" x="7777.565000" y="14592.200000" type="priority"/>
	<node id="cell4_44" x="7877.565000" y="14592.200000" type="priority"/>
	<node id="cell4_45" x="7977.565000" y="14592.200000" type="priority"/>
	<node id="cell4_46" x="8077.565000" y="14592.200000" type="priority"/>
	<node id="cell4_47" x="8177.565000" y="14592.200000" type="priority"/>
	<node id="cell4_48" x="8277.565000" y="14592.200000" type="priority"/>
	<node id="cell4_49" x="8377.565000" y="14592.200000" type="priority"/>
	<node id="cell4_50" x="8477.565000" y="14592.200000" type="priority"/>
	<node id="cell4_51" x="8577.565000" y="14592.200000" type="priority"/>
	<node id="cell4_52" x="8677.565000" y="14592.200000" type="priority"/>
	<node id="cell4_53" x="8777.565000" y="14592.200000" type="priority"/>
	<node id="cell4_54" x="8877.565000" y="14592.200000" type="priority"/>
	<node id="cell4_55" x="8977.565000" y="14592.200000" type="priority"/>
	<node id="cell4_56" x="9077.565000" y="14592.200000" type="priority"/>
	<node id="cell4_57" x="9177.565000" y="14592.200000" type="priority"/>
	<node id="cell4_58" x="9277.565000" y="14592.200000" type="priority"/>
	<node id="cell4_59" x="9377.565000" y="14592.200000" type="priority"/>
	<node id="cell4_60" x="9477.565000" y="14592.200000" type="priority"/>
	<node id="cell4_61" x="9577.565000" y="14592.200000" type="priority"/>
	<node id="cell4_62" x="9677.565000" y="14592.200000" type="priority"/>
	<node id="cell4_63" x="9777.565000" y="14592.200000" type="priority"/>
	<node id="cell4_64" x="9877.565000" y="14592.200000" type="priority"/>
	<node id="cell4_65" x="9977.565000" y="14592.200000" type="priority"/>
	<node id="cell4_66" x="10077.565000" y="14592.200000" type="priority"/>
	<node id="cell4_67" x="10177.565000" y="14592.200000" type="priority"/>
	<node id="cell4_68" x="10277.565000" y="14592.200000" type="priority"/>
	<node id="cell4_69" x="10377.565000" y="14592.200000" type="priority"/>
	<node id="cell4_70" x="10477.565000" y="14592.200000" type="priority"/>
	<node id="cell4_71" x="10577.565000" y="14592.200000" type="priority"/>
	<node id="cell4_72" x="10677.565000" y="14592.200000" type="priority"/>
	<node id="cell4_73" x="10777.565000" y="14592.200000" type="priority"/>
	<node id="cell4_74" x="10877.565000" y="14592.200000" type="priority"/>
	<node id="cell5_0" x="3477.565000" y="14492.200000" type="priority"/>
	<node id="cell5_1" x="3577.565000" y="14492.200000" type="priority"/>
	<node id="cell5_2" x="3677.565000" y="14492.200000" type="priority"/>
	<node id="cell5_3" x="3777.565000" y="14492.200000" type="priority"/>
	<node id="cell5_4" x="3877.565000" y="14492.200000" type="priority"/>
	<node id="cell5_5" x="3977.565000" y="14492.200000" type="priority"/>
	<node id="cell5_6" x="4077.565000" y="14492.200000" type="priority"/>
	<node id="cell5_7" x="4177.565000" y="14492.200000" type="priority"/>
	<node id="cell5_8" x="4277.565000" y="14492.200000" type="priority"/>
	<node id="cell5_9" x="4377.565000" y="14492.200000" type="priority"/>
	<node id="cell5_10" x="4477.565000" y="14492.200000" type="priority"/>
	<node id="cell5_11" x="4577.565000" y="14492.200000" type="priority"/>
	<node id="cell5_12" x="4677.565000" y="14492.200000" type="priority"/>
	<node id="cell5_13" x="4777.565000" y="14492.200000" type="priority"/>
	<node id="cell5_14" x="4877.565000" y="14492.200000" type="priority"/>
	<node id="cell5_15" x="4977.565000" y="14492.200000" type="priority"/>
	<node id="cell5_16" x="5077.565000" y="14492.200000" type="priority"/>
	<node id="cell5_17" x="5177.565000" y="14492.200000" type="priority"/>
	<node id="cell5_18" x="5277.565000" y="14492.200000" type="priority"/>
	<node id="cell5_19" x="5377.565000" y="14492.200000" type="priority"/>
	<node id="cell5_20" x="5477.565000" y="14492.200000" type="priority"/>
	<node id="cell5_21" x="5577.565000" y="14492.200000" type="priority"/>
	<node id="cell5_22" x="5677.565000" y="14492.200000" type="priority"/>
	<node id="cell5_23" x="5777.565000" y="14492.200000" type="priority"/>
	<node id="cell5_24" x="5877.565000" y="14492.200000" type="priority"/>
	<node id="cell5_25" x="5977.565000" y="14492.200000" type="priority"/>
	<node id="cell5_26" x="6077.565000" y="14492.200000" type="priority"/>
	<node id="cell5_27" x="6177.565000" y="14492.200000" type="priority"/>
	<node id="cell5_28" x="6277.565000" y="14492.200000" type="priority"/>
	<node id="cell5_29" x="6377.565000" y="14492.200000" type="priority"/>
	<node id="cell5_30" x="6477.565000" y="14492.200000" type="priority"/>
	<node id="cell5_31" x="6577.565000" y="14492.200000" type="priority"/>
	<node id="cell5_32" x="6677.565000" y="14492.200000" type="priority"/>
	<node id="cell5_33" x="6777.565000" y="14492.200000" type="priority"/>
	<node id="cell5_34" x="6877.565000" y="14492.200000" type="priority"/>
	<node id="cell5_35" x="6977.565000" y="14492.200000" type="priority"/>
	<node id="cell5_36" x="7077.565000" y="14492.200000" type="priority"/>
	<node id="cell5_37" x="7177.565000" y="14492.200000" type="priority"/>
	<node id="cell5_38" x="7277.565000" y="14492.200000" type="priority"/>
	<node id="cell5_39" x="7377.565000" y="14492.200000" type="priority"/>
	<node id="cell5_40" x="7477.565000" y="14492.200000" type="priority"/>