<edges>
	<edge id="road0" from="cell0_70" to="cell1_71" priority="1" numLanes="1" speed="67.056000"/>
	<edge id="road1" from="cell1_30" to="cell2_30" priority="1" numLanes="1" speed="67.056000"/>
	<edge id="road2" from="cell1_30" to="cell1_30" priority="1" numLanes="1" speed="67.056000"/>
	<edge id="road3" from="cell1_38" to="cell1_38" priority="1" numLanes="1" speed="67.056000"/>
	<edge id="road4" from="cell1_38" to="cell2_38" priority="1" numLanes="1" speed="67.056000"/>
	<edge id="road5" from="cell1_43" to="cell1_43" priority="1" numLanes="1" speed="67.056000"/>
	<edge id="road6" from="cell1_43" to="cell2_44" priority="1" numLanes="1" speed="67.056000"/>
	<edge id="road7" from="cell1_49" to="cell2_49" priority="1" numLanes="1" speed="67.056000"/>
	<edge id="road8" from="cell1_50" to="cell1_50" priority="1" numLanes="1" speed="67.056000"/>
	<edge id="road9" from="cell1_50" to="cell2_50" priority="1" numLanes="1" speed="67.056000"/>
	<edge id="road10" from="cell1_51" to="cell2_51" priority="1" numLanes="1" speed="67.056000"/>
	<edge id="road11" from="cell1_56" to="cell1_56" priority="1" numLanes="1" speed="67.056000"/>
	<edge id="road12" from="cell1_56" to="cell2_56" priority="1" numLanes="1" speed="67.056000"/>
	<edge id="road13" from="cell1_61" to="cell2_61" priority="1" numLanes="1" speed="67.056000"/>
	<edge id="road14" from="cell1_62" to="cell1_63" priority="1" numLanes="1" speed="67.056000"/>
	<edge id="road15" from="cell1_62" to="cell2_61" priority="1" numLanes="1" speed="67.056000"/>
	<edge id="road16" from="cell1_63" to="cell1_63" priority="1" numLanes="1" speed="67.056000"/>
	<edge id="road17" from="cell1_63" to="cell2_63" priority="1" numLanes="1" speed="67.056000"/>
	<edge id="road18" from="cell1_63" to="cell2_64" priority="1" numLanes="1" speed="67.056000"/>
	<edge id="road19" from="cell1_63" to="cell1_62" priority="1" numLanes="1" speed="67.056000"/>
	<edge id="road20" from="cell1_71" to="cell1_71" priority="1" numLanes="1" speed="67.056000"/>
	<edge id="road21" from="cell1_71" to="cell0_70" priority="1" numLanes="1" speed="67.056000"/>
	<edge id="road22" from="cell1_71" to="cell2_71" priority="1" numLanes="1" speed="67.056000"/>
	<edge id="road23" from="cell1_72" to="cell2_72" priority="1" numLanes="1" speed="67.056000"/>
	<edge id="road24" from="cell1_72" to="cell1_73" priority="1" numLanes="1" speed="67.056000"/>
	<edge id="road25" from="cell1_73" to="cell1_73" priority="1" numLanes="1" speed="67.056000"/>
	<edge id="road26" from="cell1_73" to="cell1_72" priority="1" numLanes="1" speed="67.056000"/>
	<edge id="road27" from="cell1_73" to="cell1_74" priority="1" numLanes="1" speed="67.056000"/>
	<edge id="road28" from="cell1_74" to="cell1_73" priority="1" numLanes="1" speed="67.056000"/>
	<edge id="road29" from="cell1_74" to="cell1_74" priority="1" numLanes="1" speed="67.056000"/>
	<edge id="road30" from="cell1_74" to="cell2_74" priority="1" numLanes="1" speed="67.056000"/>
	<edge id="road31" from="cell1_74" to="cell2_73" priority="1" numLanes="1" speed="67.056000"/>
	<edge id="road32" from="cell2_0" to="cell3_1" priority="1" numLanes="1" speed="67.056000"/>
	<edge id="road33" from="cell2_11" to="cell2_11" priority="1" numLanes="1" speed="67.056000"/>
	<edge id="road34" from="cell2_11" to="cell3_11" priority="1" numLanes="1" speed="67.056000"/>
	<edge id="road35" from="cell2_15" to="cell3_15" priority="1" numLanes="1" speed="67.056000"/>
	<edge id="road36" from="cell2_20" to="cell3_20" priority="1" numLanes="1" speed="67.056000"/>
	<edge id="road37" from="cell2_25" to="cell3_25" priority="1" numLanes="1" speed="67.056000"/>
	<edge id="road38" from="cell2_27" to="cell2_27" priority="1" numLanes="1" speed="67.056000"/>
	<edge id="road39" from="cell2_30" to="cell2_30" priority="1" numLanes="1" speed="67.056000"/>
	<edge id="road40" from="cell2_30" to="cell3_30" priority="1" numLanes="1" speed="67.056000"/>
	<edge id="road41" from="cell2_30" to="cell2_31" priority="1" numLanes="1" speed="67.056000"/>
	<edge id="road42" from="cell2_30" to="cell1_30" priority="1" numLanes="1" speed="67.056000"/>
	<edge id="road43" from="cell2_31" to="cell3_30" priority="1" numLanes="1" speed="67.056000"/>
	<edge id="road44" from="cell2_31" to="cell2_31" priority="1" numLanes="1" speed="67.056000"/>
	<edge id="road45" from="cell2_31" to="cell3_32" priority="1" numLanes="1" speed="67.056000"/>
	<edge id="road46" from="cell2_31" to="cell2_30" priority="1" numLanes="1" speed="67.056000"/>
	<edge id="road47" from="cell2_31" to="cell3_31" priority="1" numLanes="1" speed="67.056000"/>
	<edge id="road48" from="cell2_33" to="cell2_33" priority="1" numLanes="1" speed="67.056000"/>
	<edge id="road49" from="cell2_33" to="cell3_32" priority="1" numLanes="1" speed="67.056000"/>
	<edge id="road50" from="cell2_33" to="cell3_34" priority="1" numLanes="1" speed="67.056000"/>
	<edge id="road51" from="cell2_34" to="cell2_34" priority="1" numLanes="1" speed="67.056000"/>
	<edge id="road52" from="cell2_34" to="cell3_34" priority="1" numLanes="1" speed="67.056000"/>
	<edge id="road53" from="cell2_36" to="cell3_35" priority="1" numLanes="1" speed="67.056000"/>
	<edge id="road54" from="cell2_36" to="cell2_37" priority="1" numLanes="1" speed="67.056000"/>
	<edge id="road55" from="cell2_36" to="cell3_37" priority="1" numLanes="1" speed="67.056000"/>
	<edge id="road56" from="cell2_37" to="cell2_37" priority="1" numLanes="1" speed="67.056000"/>
	<edge id="road57" from="cell2_37" to="cell2_36" priority="1" numLanes="1" speed="67.056000"/>
	<edge id="road58" from="cell2_37" to="cell3_37" priority="1" numLanes="1" speed="67.056000"/>
	<edge id="road59" from="cell2_37" to="cell2_38" priority="1" numLanes="1" speed="67.056000"/>
	<edge id="road60" from="cell2_38" to="cell2_38" priority="1" numLanes="1" speed="67.056000"/>
	<edge id="road61" from="cell2_38" to="cell1_38" priority="1" numLanes="1" speed="67.056000"/>
	<edge id="road62" from="cell2_38" to="cell2_37" priority="1" numLanes="1" speed="67.056000"/>
	<edge id="road63" from="cell2_38" to="cell3_38" priority="1" numLanes="1" speed="67.056000"/>
	<edge id="road64" from="cell2_38" to="cell2_39" priority="1" numLanes="1" speed="67.056000"/>
	<edge id="road65" from="cell2_39" to="cell2_38" priority="1" numLanes="1" speed="67.056000"/>
	<edge id="road66" from="cell2_39" to="cell3_39" priority="1" numLanes="1" speed="67.056000"/>
	<edge id="road67" from="cell2_42" to="cell2_42" priority="1" numLanes="1" speed="67.056000"/>
	<edge id="road68" from="cell2_42" to="cell3_42" priority="1" numLanes="1" speed="67.056000"/>
	<edge id="road69" from="cell2_43" to="cell3_43" priority="1" numLanes="1" speed="67.056000"/>
	<edge id="road70" from="cell2_43" to="cell2_44" priority="1" numLanes="1" speed="67.056000"/>
	<edge id="road71" from="cell2_44" to="cell2_44" priority="1" numLanes="1" speed="67.056000"/>
	<edge id="road72" from="cell2_44" to="cell2_43" priority="1" numLanes="1" speed="67.056000"/>
	<edge id="road73" from="cell2_44" to="cell1_43" priority="1" numLanes="1" speed="67.056000"/>
	<edge id="road74" from="cell2_44" to="cell3_44" priority="1" numLanes="1" speed="67.056000"/>
	<edge id="road75" from="cell2_44" to="cell2_45" priority="1" numLanes="1" speed="67.056000"/>
	<edge id="road76" from="cell2_45" to="cell2_45" priority="1" numLanes="1" speed="67.056000"/>
	<edge id="road77" from="cell2_45" to="cell2_44" priority="1" numLanes="1" speed="67.056000"/>
	<edge id="road78" from="cell2_46" to="cell2_46" priority="1" numLanes="1" speed="67.056000"/>
	<edge id="road79" from="cell2_46" to="cell3_46" priority="1" numLanes="1" speed="67.056000"/>
	<edge id="road80" from="cell2_47" to="cell2_47" priority="1" numLanes="1" speed="67.056000"/>
	<edge id="road81" from="cell2_47" to="cell2_48" priority="1" numLanes="1" speed="67.056000"/>
	<edge id="road82" from="cell2_47" to="cell3_47" priority="1" numLanes="1" speed="67.056000"/>
	<edge id="road83" from="cell2_48" to="cell2_47" priority="1" numLanes="1" speed="67.056000"/>
	<edge id="road84" from="cell2_48" to="cell2_48" priority="1" numLanes="1" speed="67.056000"/>
	<edge id="road85" from="cell2_48" to="cell2_49" priority="1" numLanes="1" speed="67.056000"/>
	<edge id="road86" from="cell2_48" to="cell3_48" priority="1" numLanes="1" speed="67.056000"/>
	<edge id="road87" from="cell2_49" to="cell2_48" priority="1" numLanes="1" speed="67.056000"/>
	<edge id="road88" from="cell2_49" to="cell2_49" priority="1" numLanes="1" speed="67.056000"/>
	<edge id="road89" from="cell2_49" to="cell3_49" priority="1" numLanes="1" speed="67.056000"/>
	<edge id="road90" from="cell2_49" to="cell2_50" priority="1" numLanes="1" speed="67.056000"/>
	<edge id="road91" from="cell2_50" to="cell2_49" priority="1" numLanes="1" speed="67.056000"/>
	<edge id="road92" from="cell2_50" to="cell3_50" priority="1" numLanes="1" speed="67.056000"/>
	<edge id="road93" from="cell2_50" to="cell2_50" priority="1" numLanes="1" speed="67.056000"/>
	<edge id="road94" from="cell2_50" to="cell1_50" priority="1" numLanes="1" speed="67.056000"/>
	<edge id="road95" from="cell2_51" to="cell3_51" priority="1" numLanes="1" speed="67.056000"/>
	<edge id="road96" from="cell2_51" to="cell2_51" priority="1" numLanes="1" speed="67.056000"/>
	<edge id="road97" from="cell2_51" to="cell3_50" priority="1" numLanes="1" speed="67.056000"/>
	<edge id="road98" from="cell2_51" to="cell1_51" priority="1" numLanes="1" speed="67.056000"/>
	<edge id="road99" from="cell2_54" to="cell3_54" priority="1" numLanes="1" speed="67.056000"/>
	<edge id="road100" from="cell2_54" to="cell2_54" priority="1" numLanes="1" speed="67.056000"/>
	<edge id="road101" from="cell2_55" to="cell2_55" priority="1" numLanes="1" speed="67.056000"/>
	<edge id="road102" from="cell2_55" to="cell2_56" priority="1" numLanes="1" speed="67.056000"/>
	<edge id="road103" from="cell2_55" to="cell3_55" priority="1" numLanes="1" speed="67.056000"/>
	<edge id="road104" from="cell2_56" to="cell1_56" priority="1" numLanes="1" speed="67.056000"/>
	<edge id="road105" from="cell2_56" to="cell2_56" priority="1" numLanes="1" speed="67.056000"/>
	<edge id="road106" from="cell2_56" to="cell2_55" priority="1" numLanes="1" speed="67.056000"/>
	<edge id="road107" from="cell2_56" to="cell3_57" priority="1" numLanes="1" speed="67.056000"/>
	<edge id="road108" from="cell2_57" to="cell2_57" priority="1" numLanes="1" speed="67.056000"/>
	<edge id="road109" from="cell2_57" to="cell3_57" priority="1" numLanes="1" speed="67.056000"/>
	<edge id="road110" from="cell2_59" to="cell2_59" priority="1" numLanes="1" speed="67.056000"/>
	<edge id="road111" from="cell2_59" to="cell3_59" priority="1" numLanes="1" speed="67.056000"/>
	<edge id="road112" from="cell2_59" to="cell2_60" priority="1" numLanes="1" speed="67.056000"/>
	<edge id="road113" from="cell2_60" to="cell2_60" priority="1" numLanes="1" speed="67.056000"/>
	<edge id="road114" from="cell2_60" to="cell3_60" priority="1" numLanes="1" speed="67.056000"/>
	<edge id="road115" from="cell2_60" to="cell2_61" priority="1" numLanes="1" speed="67.056000"/>
	<edge id="road116" from="cell2_60" to="cell2_59" priority="1" numLanes="1" speed="67.056000"/>
	<edge id="road117" from="cell2_61" to="cell2_61" priority="1" numLanes="1" speed="67.056000"/>
	<edge id="road118" from="cell2_61" to="cell2_60" priority="1" numLanes="1" speed="67.056000"/>
	<edge id="road119" from="cell2_61" to="cell3_61" priority="1" numLanes="1" speed="67.056000"/>
	<edge id="road120" from="cell2_61" to="cell1_62" priority="1" numLanes="1" speed="67.056000"/>
	<edge id="road121" from="cell2_61" to="cell1_61" priority="1" numLanes="1" speed="67.056000"/>
	<edge id="road122" from="cell2_63" to="cell1_63" priority="1" numLanes="1" speed="67.056000"/>
	<edge id="road123" from="cell2_63" to="cell2_63" priority="1" numLanes="1" speed="67.056000"/>
	<edge id="road124" from="cell2_63" to="cell2_64" priority="1" numLanes="1" speed="67.056000"/>
	<edge id="road125" from="cell2_64" to="cell1_63" priority="1" numLanes="1" speed="67.056000"/>
	<edge id="road126" from="cell2_64" to="cell3_64" priority="1" numLanes="1" speed="67.056000"/>
	<edge id="road127" from="cell2_64" to="cell2_63" priority="1" numLanes="1" speed="67.056000"/>
	<edge id="road128" from="cell2_64" to="cell2_65" priority="1" numLanes="1" speed="67.056000"/>
	<edge id="road129" from="cell2_65" to="cell2_64" priority="1" numLanes="1" speed="67.056000"/>
	<edge id="road130" from="cell2_65" to="cell3_65" priority="1" numLanes="1" speed="67.056000"/>
	<edge id="road131" from="cell2_65" to="cell2_65" priority="1" numLanes="1" speed="67.056000"/>
	<edge id="road132" from="cell2_71" to="cell2_71" priority="1" numLanes="1" speed="67.056000"/>
	<edge id="road133" from="cell2_71" to="cell1_71" priority="1" numLanes="1" speed="67.056000"/>
	<edge id="road134" from="cell2_71" to="cell3_71" priority="1" numLanes="1" speed="67.056000"/>
	<edge id="road135" from="cell2_71" to="cell3_70" priority="1" numLanes="1" speed="67.056000"/>
	<edge id="road136" from="cell2_71" to="cell2_72" priority="1" numLanes="1" speed="67.056000"/>
	<edge id="road137" from="cell2_72" to="cell2_73" priority="1" numLanes="1" speed="67.056000"/>
	<edge id="road138" from="cell2_72" to="cell2_71" priority="1" numLanes="1" speed="67.056000"/>
	<edge id="road139" from="cell2_72" to="cell3_73" priority="1" numLanes="1" speed="67.056000"/>
	<edge id="road140" from="cell2_72" to="cell3_72" priority="1" numLanes="1" speed="67.056000"/>
	<edge id="road141" from="cell2_72" to="cell1_72" priority="1" numLanes="1" speed="67.056000"/>
	<edge id="road142" from="cell2_73" to="cell2_73" priority="1" numLanes="1" speed="67.056000"/>
	<edge id="road143" from="cell2_73" to="cell1_74" priority="1" numLanes="1" speed="67.056000"/>
	<edge id="road144" from="cell2_73" to="cell3_74" priority="1" numLanes="1" speed="67.056000"/>
	<edge id="road145" from="cell2_73" to="cell2_72" priority="1" numLanes="1" speed="67.056000"/>
	<edge id="road146" from="cell2_74" to="cell2_74" priority="1" numLanes="1" speed="67.056000"/>
	<edge id="road147" from="cell2_74" to="cell1_74" priority="1" numLanes="1" speed="67.056000"/>
	<edge id="road148" from="cell3_1" to="cell3_1" priority="1" numLanes="1" speed="67.056000"/>
	<edge id="road149" from="cell3_1" to="cell2_0" priority="1" numLanes="1" speed="67.056000"/>
	<edge id="road150" from="cell3_1" to="cell4_2" priority="1" numLanes="1" speed="67.056000"/>
	<edge id="road151" from="cell3_3" to="cell3_3" priority="1" numLanes="1" speed="67.056000"/>
	<edge id="road152" from="cell3_3" to="cell4_3" priority="1" numLanes="1" speed="67.056000"/>
	<edge id="road153" from="cell3_4" to="cell4_4" priority="1" numLanes="1" speed="67.056000"/>
	<edge id="road154" from="cell3_5" to="cell3_5" priority="1" numLanes="1" speed="67.056000"/>
	<edge id="road155" from="cell3_5" to="cell4_5" priority="1" numLanes="1" speed="67.056000"/>
	<edge id="road156" from="cell3_6" to="cell3_6" priority="1" numLanes="1" speed="67.056000"/>
	<edge id="road157" from="cell3_6" to="cell4_6" priority="1" numLanes="1" speed="67.056000"/>
	<edge id="road158" from="cell3_7" to="cell4_7" priority="1" numLanes="1" speed="67.056000"/>
	<edge id="road159" from="cell3_8" to="cell3_8" priority="1" numLanes="1" speed="67.056000"/>
	<edge id="road160" from="cell3_8" to="cell4_9" priority="1" numLanes="1" speed="67.056000"/>
	<edge id="road161" from="cell3_8" to="cell4_7" priority="1" numLanes="1" speed="67.056000"/>
	<edge id="road162" from="cell3_11" to="cell4_12" priority="1" numLanes="1" speed="67.056000"/>
	<edge id="road163" from="cell3_11" to="cell2_11" priority="1" numLanes="1" speed="67.056000"/>
	<edge id="road164" from="cell3_12" to="cell4_12" priority="1" numLanes="1" speed="67.056000"/>
	<edge id="road165" from="cell3_15" to="cell2_15" priority="1" numLanes="1" speed="67.056000"/>
	<edge id="road166" from="cell3_15" to="cell3_15" priority="1" numLanes="1" speed="67.056000"/>
	<edge id="road167" from="cell3_15" to="cell4_15" priority="1" numLanes="1" speed="67.056000"/>
	<edge id="road168" from="cell3_16" to="cell3_17" priority="1" numLanes="1" speed="67.056000"/>
	<edge id="road169" from="cell3_17" to="cell4_17" priority="1" numLanes="1" speed="67.056000"/>
	<edge id="road170" from="cell3_17" to="cell3_16" priority="1" numLanes="1" speed="67.056000"/>
	<edge id="road171" from="cell3_18" to="cell3_18" priority="1" numLanes="1" speed="67.056000"/>
	<edge id="road172" from="cell3_18" to="cell4_18" priority="1" numLanes="1" speed="67.056000"/>
	<edge id="road173" from="cell3_18" to="cell3_19" priority="1" numLanes="1" speed="67.056000"/>
	<edge id="road174" from="cell3_19" to="cell3_19" priority="1" numLanes="1" speed="67.056000"/>
	<edge id="road175" from="cell3_19" to="cell3_18" priority="1" numLanes="1" speed="67.056000"/>
	<edge id="road176" from="cell3_19" to="cell3_20" priority="1" numLanes="1" speed="67.056000"/>
	<edge id="road177" from="cell3_20" to="cell3_20" priority="1" numLanes="1" speed="67.056000"/>
	<edge id="road178" from="cell3_20" to="cell4_20" priority="1" numLanes="1" speed="67.056000"/>
	<edge id="road179" from="cell3_20" to="cell2_20" priority="1" numLanes="1" speed="67.056000"/>
	<edge id="road180" from="cell3_20" to="cell3_21" priority="1" numLanes="1" speed="67.056000"/>
	<edge id="road181" from="cell3_20" to="cell3_19" priority="1" numLanes="1" speed="67.056000"/>
	<edge id="road182" from="cell3_21" to="cell3_20" priority="1" numLanes="1" speed="67.056000"/>
	<edge id="road183" from="cell3_21" to="cell3_21" priority="1" numLanes="1" speed="67.056000"/>
	<edge id="road184" from="cell3_21" to="cell4_21" priority="1" numLanes="1" speed="67.056000"/>
	<edge id="road185" from="cell3_21" to="cell3_22" priority="1" numLanes="1" speed="67.056000"/>
	<edge id="road186" from="cell3_22" to="cell3_22" priority="1" numLanes="1" speed="67.056000"/>
	<edge id="road187" from="cell3_22" to="cell3_21" priority="1" numLanes="1" speed="67.056000"/>
	<edge id="road188" from="cell3_22" to="cell3_23" priority="1" numLanes="1" speed="67.056000"/>
	<edge id="road189" from="cell3_22" to="cell4_22" priority="1" numLanes="1" speed="67.056000"/>
	<edge id="road190" from="cell3_23" to="cell3_23" priority="1" numLanes="1" speed="67.056000"/>
	<edge id="road191" from="cell3_23" to="cell3_22" priority="1" numLanes="1" speed="67.056000"/>
	<edge id="road192" from="cell3_23" to="cell3_24" priority="1" numLanes="1" speed="67.056000"/>
	<edge id="road193" from="cell3_24" to="cell3_23" priority="1" numLanes="1" speed="67.056000"/>
	<edge id="road194" from="cell3_24" to="cell3_24" priority="1" numLanes="1" speed="67.056000"/>
	<edge id="road195" from="cell3_24" to="cell3_25" priority="1" numLanes="1" speed="67.056000"/>
	<edge id="road196" from="cell3_25" to="cell3_25" priority="1" numLanes="1" speed="67.056000"/>
	<edge id="road197" from="cell3_25" to="cell3_24" priority="1" numLanes="1" speed="67.056000"/>
	<edge id="road198" from="cell3_25" to="cell2_25" priority="1" numLanes="1" speed="67.056000"/>
	<edge id="road199" from="cell3_25" to="cell3_26" priority="1" numLanes="1" speed="67.056000"/>
	<edge id="road200" from="cell3_26" to="cell3_25" priority="1" numLanes="1" speed="67.056000"/>
	<edge id="road201" from="cell3_26" to="cell3_26" priority="1" numLanes="1" speed="67.056000"/>
	<edge id="road202" from="cell3_26" to="cell4_26" priority="1" numLanes="1" speed="67.056000"/>
	<edge id="road203" from="cell3_27" to="cell4_28" priority="1" numLanes="1" speed="67.056000"/>
	<edge id="road204" from="cell3_27" to="cell3_27" priority="1" numLanes="1" speed="67.056000"/>
	<edge id="road205" from="cell3_27" to="cell4_27" priority="1" numLanes="1" speed="67.056000"/>
	<edge id="road206" from="cell3_27" to="cell2_27" priority="1" numLanes="1" speed="67.056000"/>
	<edge id="road207" from="cell3_28" to="cell3_29" priority="1" numLanes="1" speed="67.056000"/>
	<edge id="road208" from="cell3_28" to="cell4_28" priority="1" numLanes="1" speed="67.056000"/>
	<edge id="road209" from="cell3_28" to="cell3_28" priority="1" numLanes="1" speed="67.056000"/>
	<edge id="road210" from="cell3_29" to="cell3_29" priority="1" numLanes="1" speed="67.056000"/>
	<edge id="road211" from="cell3_29" to="cell4_30" priority="1" numLanes="1" speed="67.056000"/>
	<edge id="road212" from="cell3_29" to="cell3_30" priority="1" numLanes="1" speed="67.056000"/>
	<edge id="road213" from="cell3_29" to="cell3_28" priority="1" numLanes="1" speed="67.056000"/>
	<edge id="road214" from="cell3_30" to="cell3_30" priority="1" numLanes="1" speed="67.056000"/>
	<edge id="road215" from="cell3_30" to="cell3_29" priority="1" numLanes="1" speed="67.056000"/>
	<edge id="road216" from="cell3_30" to="cell2_31" priority="1" numLanes="1" speed="67.056000"/>
	<edge id="road217" from="cell3_30" to="cell2_30" priority="1" numLanes="1" speed="67.056000"/>
	<edge id="road218" from="cell3_30" to="cell3_31" priority="1" numLanes="1" speed="67.056000"/>
	<edge id="road219" from="cell3_31" to="cell3_31" priority="1" numLanes="1" speed="67.056000"/>
	<edge id="road220" from="cell3_31" to="cell3_30" priority="1" numLanes="1" speed="67.056000"/>
	<edge id="road221" from="cell3_31" to="cell2_31" priority="1" numLanes="1" speed="67.056000"/>
	<edge id="road222" from="cell3_31" to="cell4_31" priority="1" numLanes="1" speed="67.056000"/>
	<edge id="road223" from="cell3_31" to="cell3_32" priority="1" numLanes="1" speed="67.056000"/>
	<edge id="road224" from="cell3_32" to="cell4_32" priority="1" numLanes="1" speed="67.056000"/>
	<edge id="road225" from="cell3_32" to="cell3_32" priority="1" numLanes="1" speed="67.056000"/>
	<edge id="road226" from="cell3_32" to="cell3_31" priority="1" numLanes="1" speed="67.056000"/>
	<edge id="road227" from="cell3_32" to="cell2_31" priority="1" numLanes="1" speed="67.056000"/>
	<edge id="road228" from="cell3_32" to="cell2_33" priority="1" numLanes="1" speed="67.056000"/>
	<edge id="road229" from="cell3_33" to="cell4_32" priority="1" numLanes="1" speed="67.056000"/>
	<edge id="road230" from="cell3_34" to="cell2_33" priority="1" numLanes="1" speed="67.056000"/>
	<edge id="road231" from="cell3_34" to="cell3_34" priority="1" numLanes="1" speed="67.056000"/>
	<edge id="road232" from="cell3_35" to="cell3_35" priority="1" numLanes="1" speed="67.056000"/>
	<edge id="road233" from="cell3_35" to="cell4_35" priority="1" numLanes="1" speed="67.056000"/>
	<edge id="road234" from="cell3_35" to="cell4_36" priority="1" numLanes="1" speed="67.056000"/>
	<edge id="road235" from="cell3_35" to="cell2_36" priority="1" numLanes="1" speed="67.056000"/>
	<edge id="road236" from="cell3_36" to="cell4_36" priority="1" numLanes="1" speed="67.056000"/>
	<edge id="road237" from="cell3_36" to="cell3_36" priority="1" numLanes="1" speed="67.056000"/>
	<edge id="road238" from="cell3_36" to="cell3_37" priority="1" numLanes="1" speed="67.056000"/>
	<edge id="road239" from="cell3_37" to="cell3_36" priority="1" numLanes="1" speed="67.056000"/>
	<edge id="road240" from="cell3_37" to="cell2_36" priority="1" numLanes="1" speed="67.056000"/>
	<edge id="road241" from="cell3_37" to="cell3_37" priority="1" numLanes="1" speed="67.056000"/>
	<edge id="road242" from="cell3_37" to="cell4_37" priority="1" numLanes="1" speed="67.056000"/>
	<edge id="road243" from="cell3_37" to="cell3_38" priority="1" numLanes="1" speed="67.056000"/>
	<edge id="road244" from="cell3_37" to="cell2_37" priority="1" numLanes="1" speed="67.056000"/>
	<edge id="road245" from="cell3_38" to="cell3_38" priority="1" numLanes="1" speed="67.056000"/>
	<edge id="road246" from="cell3_38" to="cell3_39" priority="1" numLanes="1" speed="67.056000"/>
	<edge id="road247" from="cell3_38" to="cell2_38" priority="1" numLanes="1" speed="67.056000"/>
	<edge id="road248" from="cell3_39" to="cell3_39" priority="1" numLanes="1" speed="67.056000"/>
	<edge id="road249" from="cell3_39" to="cell2_39" priority="1" numLanes="1" speed="67.056000"/>
	<edge id="road250" from="cell3_39" to="cell3_40" priority="1" numLanes="1" speed="67.056000"/>
	<edge id="road251" from="cell3_39" to="cell4_39" priority="1" numLanes="1" speed="67.056000"/>
	<edge id="road252" from="cell3_40" to="cell3_40" priority="1" numLanes="1" speed="67.056000"/>
	<edge id="road253" from="cell3_40" to="cell4_40" priority="1" numLanes="1" speed="67.056000"/>
	<edge id="road254" from="cell3_40" to="cell3_39" priority="1" numLanes="1" speed="67.056000"/>
	<edge id="road255" from="cell3_41" to="cell4_41" priority="1" numLanes="1" speed="67.056000"/>
	<edge id="road256" from="cell3_41" to="cell3_42" priority="1" numLanes="1" speed="67.056000"/>
	<edge id="road257" from="cell3_42" to="cell4_42" priority="1" numLanes="1" speed="67.056000"/>
	<edge id="road258" from="cell3_42" to="cell3_42" priority="1" numLanes="1" speed="67.056000"/>
	<edge id="road259" from="cell3_42" to="cell3_41" priority="1" numLanes="1" speed="67.056000"/>
	<edge id="road260" from="cell3_42" to="cell2_42" priority="1" numLanes="1" speed="67.056000"/>
	<edge id="road261" from="cell3_42" to="cell3_43" priority="1" numLanes="1" speed="67.056000"/>
	<edge id="road262" from="cell3_43" to="cell3_44" priority="1" numLanes="1" speed="67.056000"/>
	<edge id="road263" from="cell3_43" to="cell3_43" priority="1" numLanes="1" speed="67.056000"/>
	<edge id="road264" from="cell3_43" to="cell3_42" priority="1" numLanes="1" speed="67.056000"/>
	<edge id="road265" from="cell3_43" to="cell2_43" priority="1" numLanes="1" speed="67.056000"/>
	<edge id="road266" from="cell3_44" to="cell2_44" priority="1" numLanes="1" speed="67.056000"/>
	<edge id="road267" from="cell3_44" to="cell3_44" priority="1" numLanes="1" speed="67.056000"/>
	<edge id="road268" from="cell3_44" to="cell3_43" priority="1" numLanes="1" speed="67.056000"/>
	<edge id="road269" from="cell3_44" to="cell4_44" priority="1" numLanes="1" speed="67.056000"/>
	<edge id="road270" from="cell3_46" to="cell3_46" priority="1" numLanes="1" speed="67.056000"/>
	<edge id="road271" from="cell3_46" to="cell2_46" priority="1" numLanes="1" speed="67.056000"/>
	<edge id="road272" from="cell3_46" to="cell4_46" priority="1" numLanes="1" speed="67.056000"/>
	<edge id="road273" from="cell3_47" to="cell3_48" priority="1" numLanes="1" speed="67.056000"/>
	<edge id="road274" from="cell3_47" to="cell3_47" priority="1" numLanes="1" speed="67.056000"/>
	<edge id="road275" from="cell3_47" to="cell2_47" priority="1" numLanes="1" speed="67.056000"/>
	<edge id="road276" from="cell3_47" to="cell4_47" priority="1" numLanes="1" speed="67.056000"/>
	<edge id="road277" from="cell3_48" to="cell3_49" priority="1" numLanes="1" speed="67.056000"/>
	<edge id="road278" from="cell3_48" to="cell2_48" priority="1" numLanes="1" speed="67.056000"/>
	<edge id="road279" from="cell3_48" to="cell3_47" priority="1" numLanes="1" speed="67.056000"/>
	<edge id="road280" from="cell3_48" to="cell4_48" priority="1" numLanes="1" speed="67.056000"/>
	<edge id="road281" from="cell3_49" to="cell2_49" priority="1" numLanes="1" speed="67.056000"/>
	<edge id="road282" from="cell3_49" to="cell3_49" priority="1" numLanes="1" speed="67.056000"/>
	<edge id="road283" from="cell3_49" to="cell3_48" priority="1" numLanes="1" speed="67.056000"/>
	<edge id="road284" from="cell3_49" to="cell4_49" priority="1" numLanes="1" speed="67.056000"/>
	<edge id="road285" from="cell3_50" to="cell2_50" priority="1" numLanes="1" speed="67.056000"/>
	<edge id="road286" from="cell3_50" to="cell3_50" priority="1" numLanes="1" speed="67.056000"/>
	<edge id="road287" from="cell3_50" to="cell4_50" priority="1" numLanes="1" speed="67.056000"/>
	<edge id="road288" from="cell3_50" to="cell2_51" priority="1" numLanes="1" speed="67.056000"/>
	<edge id="road289" from="cell3_51" to="cell3_51" priority="1" numLanes="1" speed="67.056000"/>
	<edge id="road290" from="cell3_51" to="cell4_51" priority="1" numLanes="1" speed="67.056000"/>
	<edge id="road291" from="cell3_51" to="cell2_51" priority="1" numLanes="1" speed="67.056000"/>
	<edge id="road292" from="cell3_54" to="cell3_55" priority="1" numLanes="1" speed="67.056000"/>
	<edge id="road293" from="cell3_54" to="cell3_54" priority="1" numLanes="1" speed="67.056000"/>
	<edge id="road294" from="cell3_54" to="cell2_54" priority="1" numLanes="1" speed="67.056000"/>
	<edge id="road295" from="cell3_55" to="cell2_55" priority="1" numLanes="1" speed="67.056000"/>
	<edge id="road296" from="cell3_55" to="cell3_55" priority="1" numLanes="1" speed="67.056000"/>
	<edge id="road297" from="cell3_55" to="cell4_55" priority="1" numLanes="1" speed="67.056000"/>
	<edge id="road298" from="cell3_55" to="cell3_56" priority="1" numLanes="1" speed="67.056000"/>
	<edge id="road299" from="cell3_55" to="cell3_54" priority="1" numLanes="1" speed="67.056000"/>
	<edge id="road300" from="cell3_56" to="cell3_57" priority="1" numLanes="1" speed="67.056000"/>
	<edge id="road301" from="cell3_56" to="cell3_56" priority="1" numLanes="1" speed="67.056000"/>
	<edge id="road302" from="cell3_56" to="cell3_55" priority="1" numLanes="1" speed="67.056000"/>
	<edge id="road303" from="cell3_57" to="cell2_56" priority="1" numLanes="1" speed="67.056000"/>
	<edge id="road304" from="cell3_57" to="cell3_57" priority="1" numLanes="1" speed="67.056000"/>
	<edge id="road305" from="cell3_57" to="cell4_57" priority="1" numLanes="1" speed="67.056000"/>
	<edge id="road306" from="cell3_57" to="cell2_57" priority="1" numLanes="1" speed="67.056000"/>
	<edge id="road307" from="cell3_57" to="cell3_56" priority="1" numLanes="1" speed="67.056000"/>
	<edge id="road308" from="cell3_58" to="cell3_58" priority="1" numLanes="1" speed="67.056000"/>
	<edge id="road309" from="cell3_58" to="cell3_59" priority="1" numLanes="1" speed="67.056000"/>
	<edge id="road310" from="cell3_58" to="cell4_58" priority="1" numLanes="1" speed="67.056000"/>
	<edge id="road311" from="cell3_59" to="cell4_58" priority="1" numLanes="1" speed="67.056000"/>
	<edge id="road312" from="cell3_59" to="cell3_59" priority="1" numLanes="1" speed="67.056000"/>